
These predictions were generated by FAST (v7.02.00d-bjj, 20-Feb-2013)-Compiled as S-Function for Simulink on 11-May-2017 at 18:15:11.
The aerodynamic calculations were made by AeroDyn (v13.00.02a-bjj, 20-Feb-2013).

 Input files for FAST v7.02.

Time	uWind	vWind	wWind	OoPDefl1	OoPDefl2	OoPDefl3	IPDefl1	IPDefl2	IPDefl3	NcIMUTAxs	NcIMUTAys	NcIMUTAzs	RootMOoP1	RootMOoP2	RootMOoP3	RootMIP1	RootMIP2	RootMIP3	RootMFlp1	RootMFlp2	RootMFlp3	RootMEdg1	RootMEdg2	RootMEdg3	TwrBsMxt	TwrBsMyt	TwrBsMzt	LSSTipMya	LSSTipMza	LSSTipVxa	GenPwr	GenTq	GenSpeed	BlPitch1	Azimuth	RotPwr	RotThrust	RotSpeed	HSShftTq
(s)	(m/s)	(m/s)	(m/s)	(m)	(m)	(m)	(m)	(m)	(m)	(m/s^2)	(m/s^2)	(m/s^2)	(kN·m)	(kN·m)	(kN·m)	(kN·m)	(kN·m)	(kN·m)	(kN·m)	(kN·m)	(kN·m)	(kN·m)	(kN·m)	(kN·m)	(kN·m)	(kN·m)	(kN·m)	(kN·m)	(kN·m)	(rpm)	(kW)	(kN·m)	(rpm)	(deg)	(deg)	(kW)	(kN)	(rpm)	(kN·m)
   0.013	 4.531E+00	-3.469E+00	 0.000E+00	 2.132E-03	 2.225E-03	 2.405E-03	-2.720E-04	-1.651E-03	 1.165E-03	-5.716E-02	 5.252E-02	-2.546E-02	 8.193E+01	 8.665E+01	 1.947E+02	 1.776E+00	 7.759E+02	-7.759E+02	 8.193E+01	 8.809E+01	 1.932E+02	 1.625E+00	 7.758E+02	-7.762E+02	 2.228E-01	-1.021E+02	-2.027E+01	-1.569E+02	-1.050E+02	 5.001E+00	 0.000E+00	 0.000E+00	 4.850E+02	 1.060E-01	 3.750E-01	 4.433E-01	 7.952E+01	 5.001E+00	 8.727E-03
   0.025	 4.531E+00	-3.469E+00	 0.000E+00	 8.507E-03	 8.892E-03	 9.618E-03	-1.080E-03	-6.584E-03	 4.657E-03	-5.702E-02	 1.033E-02	-2.553E-02	 8.746E+01	 1.150E+02	 2.015E+02	 1.123E+00	 8.118E+02	-8.077E+02	 8.747E+01	 1.165E+02	 2.000E+02	 9.615E-01	 8.116E+02	-8.081E+02	-3.306E-01	-8.570E+01	-6.181E+01	-1.751E+02	-8.494E+01	 5.002E+00	 0.000E+00	 0.000E+00	 4.850E+02	 1.060E-01	 7.501E-01	 1.380E+00	 8.031E+01	 5.002E+00	 2.716E-02
   0.038	 4.531E+00	-3.469E+00	 0.000E+00	 1.899E-02	 1.992E-02	 2.148E-02	-2.381E-03	-1.474E-02	 1.049E-02	-5.418E-02	-3.087E-02	-2.493E-02	 9.659E+01	 1.569E+02	 2.245E+02	 9.149E-01	 8.632E+02	-8.550E+02	 9.659E+01	 1.585E+02	 2.229E+02	 7.362E-01	 8.629E+02	-8.554E+02	-4.888E-01	-5.715E+01	-1.067E+02	-2.054E+02	-6.850E+01	 5.003E+00	 0.000E+00	 0.000E+00	 4.850E+02	 1.060E-01	 1.125E+00	 3.068E+00	 8.208E+01	 5.003E+00	 6.037E-02
   0.056	 4.531E+00	-3.469E+00	 0.000E+00	 4.161E-02	 4.402E-02	 4.708E-02	-5.091E-03	-3.248E-02	 2.332E-02	-4.817E-02	-7.738E-02	-2.336E-02	 1.162E+02	 2.414E+02	 2.764E+02	 4.211E+00	 9.679E+02	-9.542E+02	 1.162E+02	 2.432E+02	 2.746E+02	 3.996E+00	 9.675E+02	-9.547E+02	 1.459E+00	 7.187E+00	-1.452E+02	-2.675E+02	-3.889E+01	 5.005E+00	 0.000E+00	 0.000E+00	 4.850E+02	 1.060E-01	 1.688E+00	 7.122E+00	 8.559E+01	 5.005E+00	 1.401E-01
   0.069	 4.531E+00	-3.469E+00	 0.000E+00	 6.149E-02	 6.565E-02	 6.954E-02	-7.369E-03	-4.827E-02	 3.498E-02	-4.062E-02	-8.867E-02	-2.142E-02	 1.388E+02	 3.186E+02	 3.256E+02	 1.019E+01	 1.059E+03	-1.043E+03	 1.388E+02	 3.206E+02	 3.237E+02	 9.930E+00	 1.059E+03	-1.044E+03	 4.817E+00	 6.601E+01	-1.313E+02	-3.207E+02	-1.078E+01	 5.007E+00	 0.000E+00	 0.000E+00	 4.851E+02	 1.060E-01	 2.064E+00	 1.110E+01	 8.924E+01	 5.007E+00	 2.182E-01
   0.081	 4.531E+00	-3.469E+00	 0.000E+00	 8.472E-02	 9.151E-02	 9.583E-02	-9.958E-03	-6.685E-02	 4.889E-02	-3.363E-02	-7.733E-02	-1.923E-02	 1.637E+02	 3.999E+02	 3.822E+02	 2.056E+01	 1.163E+03	-1.148E+03	 1.637E+02	 4.021E+02	 3.801E+02	 2.026E+01	 1.162E+03	-1.148E+03	 9.265E+00	 1.375E+02	-8.292E+01	-3.788E+02	 1.543E+01	 5.010E+00	 0.000E+00	 0.000E+00	 4.851E+02	 1.060E-01	 2.439E+00	 1.601E+01	 9.276E+01	 5.010E+00	 3.146E-01
   0.097	 4.531E+00	-3.469E+00	 0.000E+00	 1.187E-01	 1.307E-01	 1.342E-01	-1.364E-02	-9.419E-02	 6.983E-02	-1.881E-02	-3.874E-02	-1.465E-02	 2.102E+02	 5.188E+02	 4.724E+02	 3.942E+01	 1.313E+03	-1.302E+03	 2.103E+02	 5.212E+02	 4.700E+02	 3.903E+01	 1.312E+03	-1.303E+03	 1.414E+01	 2.471E+02	 1.676E+01	-4.560E+02	 4.863E+01	 5.012E+00	 0.000E+00	 0.000E+00	 4.853E+02	 1.060E-01	 2.909E+00	 2.347E+01	 9.883E+01	 5.012E+00	 4.610E-01
   0.113	 4.531E+00	-3.469E+00	 0.000E+00	 1.563E-01	 1.753E-01	 1.765E-01	-1.768E-02	-1.243E-01	 9.326E-02	-3.636E-03	 6.031E-03	-9.420E-03	 2.638E+02	 6.384E+02	 5.709E+02	 6.060E+01	 1.477E+03	-1.473E+03	 2.639E+02	 6.411E+02	 5.682E+02	 6.012E+01	 1.476E+03	-1.474E+03	 1.504E+01	 3.706E+02	 1.160E+02	-5.312E+02	 7.496E+01	 5.015E+00	 0.000E+00	 0.000E+00	 4.854E+02	 1.060E-01	 3.379E+00	 3.162E+01	 1.048E+02	 5.015E+00	 6.207E-01
   0.131	 4.531E+00	-3.469E+00	 0.000E+00	 2.067E-01	 2.376E-01	 2.330E-01	-2.311E-02	-1.645E-01	 1.252E-01	 1.879E-02	 5.191E-02	-1.373E-03	 3.456E+02	 7.878E+02	 7.063E+02	 8.830E+01	 1.697E+03	-1.702E+03	 3.457E+02	 7.909E+02	 7.031E+02	 8.766E+01	 1.696E+03	-1.703E+03	 7.083E+00	 5.389E+02	 2.055E+02	-6.159E+02	 9.502E+01	 5.018E+00	 0.000E+00	 0.000E+00	 4.856E+02	 1.060E-01	 3.944E+00	 4.213E+01	 1.129E+02	 5.018E+00	 8.264E-01
   0.144	 4.531E+00	-3.469E+00	 0.000E+00	 2.434E-01	 2.847E-01	 2.740E-01	-2.712E-02	-1.934E-01	 1.488E-01	 3.689E-02	 6.246E-02	 5.090E-03	 4.128E+02	 8.907E+02	 8.071E+02	 1.063E+02	 1.857E+03	-1.869E+03	 4.130E+02	 8.942E+02	 8.036E+02	 1.056E+02	 1.856E+03	-1.870E+03	-6.353E+00	 6.599E+02	 2.197E+02	-6.670E+02	 9.980E+01	 5.020E+00	 0.000E+00	 0.000E+00	 4.858E+02	 1.060E-01	 4.320E+00	 4.922E+01	 1.189E+02	 5.020E+00	 9.651E-01
   0.156	 4.531E+00	-3.469E+00	 0.000E+00	 2.821E-01	 3.359E-01	 3.170E-01	-3.145E-02	-2.237E-01	 1.737E-01	 5.441E-02	 5.516E-02	 1.173E-02	 4.864E+02	 9.891E+02	 9.107E+02	 1.235E+02	 2.027E+03	-2.044E+03	 4.867E+02	 9.928E+02	 9.069E+02	 1.226E+02	 2.025E+03	-2.046E+03	-2.621E+01	 7.840E+02	 1.929E+02	-7.099E+02	 9.636E+01	 5.023E+00	 0.000E+00	 0.000E+00	 4.861E+02	 1.060E-01	 4.697E+00	 5.606E+01	 1.246E+02	 5.023E+00	 1.099E+00
   0.172	 4.531E+00	-3.469E+00	 0.000E+00	 3.336E-01	 4.060E-01	 3.739E-01	-3.734E-02	-2.631E-01	 2.067E-01	 7.994E-02	 2.176E-02	 2.073E-02	 5.928E+02	 1.115E+03	 1.052E+03	 1.443E+02	 2.249E+03	-2.275E+03	 5.930E+02	 1.119E+03	 1.048E+03	 1.432E+02	 2.247E+03	-2.277E+03	-5.946E+01	 9.363E+02	 1.042E+02	-7.570E+02	 8.122E+01	 5.025E+00	 0.000E+00	 0.000E+00	 4.864E+02	 1.060E-01	 5.168E+00	 6.394E+01	 1.326E+02	 5.025E+00	 1.253E+00
   0.184	 4.531E+00	-3.469E+00	 0.000E+00	 3.764E-01	 4.652E-01	 4.208E-01	-4.235E-02	-2.953E-01	 2.339E-01	 9.878E-02	-9.413E-03	 2.753E-02	 6.822E+02	 1.210E+03	 1.165E+03	 1.623E+02	 2.429E+03	-2.465E+03	 6.825E+02	 1.215E+03	 1.161E+03	 1.611E+02	 2.427E+03	-2.467E+03	-8.844E+01	 1.052E+03	 1.895E+01	-7.860E+02	 6.362E+01	 5.027E+00	 0.000E+00	 0.000E+00	 4.867E+02	 1.060E-01	 5.545E+00	 6.964E+01	 1.385E+02	 5.027E+00	 1.364E+00
   0.200	 4.531E+00	-3.469E+00	 0.000E+00	 4.318E-01	 5.432E-01	 4.815E-01	-4.900E-02	-3.362E-01	 2.686E-01	 1.233E-01	-4.361E-02	 3.563E-02	 8.009E+02	 1.330E+03	 1.314E+03	 1.874E+02	 2.655E+03	-2.707E+03	 8.013E+02	 1.335E+03	 1.309E+03	 1.859E+02	 2.653E+03	-2.709E+03	-1.251E+02	 1.183E+03	-8.822E+01	-8.189E+02	 3.567E+01	 5.030E+00	 0.000E+00	 0.000E+00	 4.871E+02	 1.060E-01	 6.016E+00	 7.575E+01	 1.464E+02	 5.030E+00	 1.483E+00
   0.213	 4.531E+00	-3.469E+00	 0.000E+00	 4.778E-01	 6.087E-01	 5.315E-01	-5.468E-02	-3.692E-01	 2.968E-01	 1.437E-01	-5.880E-02	 4.149E-02	 9.008E+02	 1.426E+03	 1.439E+03	 2.107E+02	 2.833E+03	-2.903E+03	 9.012E+02	 1.431E+03	 1.434E+03	 2.091E+02	 2.830E+03	-2.906E+03	-1.524E+02	 1.271E+03	-1.603E+02	-8.436E+02	 8.302E+00	 5.032E+00	 0.000E+00	 0.000E+00	 4.874E+02	 1.060E-01	 6.393E+00	 7.961E+01	 1.532E+02	 5.032E+00	 1.558E+00
   0.231	 4.531E+00	-3.469E+00	 0.000E+00	 5.488E-01	 7.108E-01	 6.084E-01	-6.372E-02	-4.185E-01	 3.388E-01	 1.721E-01	-5.449E-02	 4.854E-02	 1.053E+03	 1.568E+03	 1.630E+03	 2.520E+02	 3.091E+03	-3.197E+03	 1.054E+03	 1.574E+03	 1.624E+03	 2.500E+02	 3.088E+03	-3.200E+03	-1.853E+02	 1.374E+03	-2.283E+02	-8.760E+02	-3.660E+01	 5.035E+00	 0.000E+00	 0.000E+00	 4.880E+02	 1.060E-01	 6.959E+00	 8.357E+01	 1.632E+02	 5.035E+00	 1.634E+00
   0.244	 4.531E+00	-3.469E+00	 0.000E+00	 5.974E-01	 7.810E-01	 6.607E-01	-7.017E-02	-4.509E-01	 3.664E-01	 1.900E-01	-3.407E-02	 5.165E-02	 1.156E+03	 1.666E+03	 1.759E+03	 2.831E+02	 3.255E+03	-3.391E+03	 1.156E+03	 1.672E+03	 1.753E+03	 2.810E+02	 3.251E+03	-3.394E+03	-1.991E+02	 1.416E+03	-2.434E+02	-8.994E+02	-6.433E+01	 5.036E+00	 0.000E+00	 0.000E+00	 4.883E+02	 1.060E-01	 7.337E+00	 8.466E+01	 1.702E+02	 5.036E+00	 1.655E+00
   0.259	 4.531E+00	-3.469E+00	 0.000E+00	 6.594E-01	 8.704E-01	 7.271E-01	-7.879E-02	-4.900E-01	 3.996E-01	 2.093E-01	 2.757E-03	 5.315E-02	 1.280E+03	 1.789E+03	 1.920E+03	 3.248E+02	 3.446E+03	-3.626E+03	 1.281E+03	 1.796E+03	 1.914E+03	 3.224E+02	 3.443E+03	-3.629E+03	-2.046E+02	 1.435E+03	-2.423E+02	-9.311E+02	-9.622E+01	 5.038E+00	 0.000E+00	 0.000E+00	 4.888E+02	 1.060E-01	 7.809E+00	 8.396E+01	 1.788E+02	 5.038E+00	 1.640E+00
   0.272	 4.531E+00	-3.469E+00	 0.000E+00	 7.096E-01	 9.425E-01	 7.804E-01	-8.601E-02	-5.203E-01	 4.251E-01	 2.237E-01	 2.682E-02	 5.311E-02	 1.379E+03	 1.894E+03	 2.047E+03	 3.577E+02	 3.592E+03	-3.808E+03	 1.380E+03	 1.901E+03	 2.040E+03	 3.551E+02	 3.589E+03	-3.812E+03	-2.018E+02	 1.432E+03	-2.443E+02	-9.593E+02	-1.140E+02	 5.040E+00	 0.000E+00	 0.000E+00	 4.892E+02	 1.060E-01	 8.187E+00	 8.221E+01	 1.860E+02	 5.040E+00	 1.606E+00
   0.284	 4.531E+00	-3.469E+00	 0.000E+00	 7.603E-01	 1.015E+00	 8.339E-01	-9.358E-02	-5.491E-01	 4.493E-01	 2.358E-01	 4.345E-02	 5.153E-02	 1.473E+03	 2.002E+03	 2.171E+03	 3.901E+02	 3.730E+03	-3.982E+03	 1.474E+03	 2.009E+03	 2.163E+03	 3.873E+02	 3.726E+03	-3.986E+03	-1.914E+02	 1.413E+03	-2.552E+02	-9.910E+02	-1.264E+02	 5.042E+00	 0.000E+00	 0.000E+00	 4.895E+02	 1.060E-01	 8.565E+00	 7.931E+01	 1.930E+02	 5.042E+00	 1.549E+00
   0.297	 4.531E+00	-3.469E+00	 0.000E+00	 8.112E-01	 1.087E+00	 8.872E-01	-1.015E-01	-5.763E-01	 4.719E-01	 2.473E-01	 4.753E-02	 4.903E-02	 1.567E+03	 2.117E+03	 2.290E+03	 4.210E+02	 3.859E+03	-4.148E+03	 1.567E+03	 2.124E+03	 2.283E+03	 4.181E+02	 3.855E+03	-4.153E+03	-1.733E+02	 1.381E+03	-2.789E+02	-1.025E+03	-1.292E+02	 5.044E+00	 0.000E+00	 0.000E+00	 4.899E+02	 1.060E-01	 8.944E+00	 7.545E+01	 2.003E+02	 5.044E+00	 1.473E+00
   0.309	 4.531E+00	-3.469E+00	 0.000E+00	 8.623E-01	 1.159E+00	 9.403E-01	-1.096E-01	-6.016E-01	 4.929E-01	 2.570E-01	 3.995E-02	 4.549E-02	 1.656E+03	 2.236E+03	 2.404E+03	 4.511E+02	 3.978E+03	-4.304E+03	 1.657E+03	 2.243E+03	 2.396E+03	 4.480E+02	 3.974E+03	-4.308E+03	-1.473E+02	 1.342E+03	-3.139E+02	-1.062E+03	-1.228E+02	 5.046E+00	 0.000E+00	 0.000E+00	 4.902E+02	 1.060E-01	 9.322E+00	 7.089E+01	 2.074E+02	 5.046E+00	 1.383E+00
   0.325	 4.531E+00	-3.469E+00	 0.000E+00	 9.259E-01	 1.248E+00	 1.006E+00	-1.201E-01	-6.305E-01	 5.165E-01	 2.687E-01	 2.031E-02	 4.053E-02	 1.766E+03	 2.392E+03	 2.540E+03	 4.880E+02	 4.112E+03	-4.483E+03	 1.767E+03	 2.400E+03	 2.531E+03	 4.848E+02	 4.107E+03	-4.488E+03	-1.041E+02	 1.292E+03	-3.627E+02	-1.109E+03	-1.019E+02	 5.049E+00	 0.000E+00	 0.000E+00	 4.905E+02	 1.060E-01	 9.795E+00	 6.470E+01	 2.164E+02	 5.049E+00	 1.262E+00
   0.338	 4.531E+00	-3.469E+00	 0.000E+00	 9.766E-01	 1.318E+00	 1.058E+00	-1.287E-01	-6.509E-01	 5.329E-01	 2.776E-01	 2.496E-03	 3.639E-02	 1.850E+03	 2.522E+03	 2.642E+03	 5.177E+02	 4.203E+03	-4.612E+03	 1.851E+03	 2.530E+03	 2.633E+03	 5.143E+02	 4.198E+03	-4.616E+03	-6.003E+01	 1.257E+03	-3.956E+02	-1.149E+03	-7.473E+01	 5.052E+00	 0.000E+00	 0.000E+00	 4.908E+02	 1.060E-01	 1.017E+01	 5.966E+01	 2.236E+02	 5.052E+00	 1.163E+00
   0.350	 4.531E+00	-3.469E+00	 0.000E+00	 1.027E+00	 1.387E+00	 1.109E+00	-1.373E-01	-6.687E-01	 5.470E-01	 2.867E-01	-1.096E-02	 3.262E-02	 1.933E+03	 2.655E+03	 2.739E+03	 5.492E+02	 4.278E+03	-4.725E+03	 1.934E+03	 2.663E+03	 2.730E+03	 5.456E+02	 4.273E+03	-4.730E+03	-8.674E+00	 1.234E+03	-4.114E+02	-1.189E+03	-3.875E+01	 5.055E+00	 0.000E+00	 0.000E+00	 4.911E+02	 1.060E-01	 1.055E+01	 5.490E+01	 2.307E+02	 5.055E+00	 1.069E+00
   0.363	 4.531E+00	-3.469E+00	 0.000E+00	 1.076E+00	 1.454E+00	 1.159E+00	-1.460E-01	-6.839E-01	 5.588E-01	 2.961E-01	-1.495E-02	 2.949E-02	 2.013E+03	 2.789E+03	 2.829E+03	 5.825E+02	 4.337E+03	-4.824E+03	 2.014E+03	 2.797E+03	 2.820E+03	 5.787E+02	 4.332E+03	-4.829E+03	 4.858E+01	 1.231E+03	-4.030E+02	-1.228E+03	 5.006E+00	 5.058E+00	 0.000E+00	 0.000E+00	 4.913E+02	 1.060E-01	 1.093E+01	 5.070E+01	 2.375E+02	 5.058E+00	 9.868E-01
   0.381	 4.531E+00	-3.469E+00	 0.000E+00	 1.148E+00	 1.551E+00	 1.232E+00	-1.588E-01	-7.019E-01	 5.720E-01	 3.119E-01	-1.468E-03	 2.679E-02	 2.130E+03	 2.991E+03	 2.957E+03	 6.367E+02	 4.394E+03	-4.942E+03	 2.131E+03	 2.999E+03	 2.948E+03	 6.327E+02	 4.389E+03	-4.948E+03	 1.407E+02	 1.269E+03	-3.453E+02	-1.283E+03	 8.058E+01	 5.063E+00	 0.000E+00	 0.000E+00	 4.916E+02	 1.060E-01	 1.150E+01	 4.563E+01	 2.474E+02	 5.063E+00	 8.872E-01
   0.394	 4.531E+00	-3.469E+00	 0.000E+00	 1.195E+00	 1.613E+00	 1.278E+00	-1.673E-01	-7.099E-01	 5.774E-01	 3.236E-01	 1.869E-02	 2.676E-02	 2.206E+03	 3.123E+03	 3.033E+03	 6.753E+02	 4.409E+03	-4.999E+03	 2.207E+03	 3.131E+03	 3.024E+03	 6.712E+02	 4.403E+03	-5.005E+03	 2.024E+02	 1.333E+03	-2.786E+02	-1.314E+03	 1.380E+02	 5.066E+00	 0.000E+00	 0.000E+00	 4.918E+02	 1.060E-01	 1.188E+01	 4.331E+01	 2.536E+02	 5.066E+00	 8.417E-01
   0.406	 4.531E+00	-3.469E+00	 0.000E+00	 1.241E+00	 1.674E+00	 1.323E+00	-1.756E-01	-7.150E-01	 5.801E-01	 3.371E-01	 4.317E-02	 2.846E-02	 2.281E+03	 3.252E+03	 3.106E+03	 7.152E+02	 4.405E+03	-5.037E+03	 2.282E+03	 3.260E+03	 3.096E+03	 7.109E+02	 4.399E+03	-5.043E+03	 2.600E+02	 1.431E+03	-2.020E+02	-1.341E+03	 1.964E+02	 5.069E+00	 0.000E+00	 0.000E+00	 4.920E+02	 1.060E-01	 1.226E+01	 4.179E+01	 2.595E+02	 5.069E+00	 8.115E-01
   0.419	 4.531E+00	-3.469E+00	 0.000E+00	 1.285E+00	 1.732E+00	 1.367E+00	-1.837E-01	-7.171E-01	 5.801E-01	 3.511E-01	 6.414E-02	 3.165E-02	 2.354E+03	 3.376E+03	 3.170E+03	 7.551E+02	 4.385E+03	-5.058E+03	 2.356E+03	 3.385E+03	 3.161E+03	 7.507E+02	 4.378E+03	-5.064E+03	 3.100E+02	 1.562E+03	-1.266E+02	-1.361E+03	 2.573E+02	 5.072E+00	 0.000E+00	 0.000E+00	 4.922E+02	 1.060E-01	 1.264E+01	 4.099E+01	 2.648E+02	 5.072E+00	 7.955E-01
   0.431	 4.531E+00	-3.469E+00	 0.000E+00	 1.327E+00	 1.787E+00	 1.408E+00	-1.917E-01	-7.161E-01	 5.774E-01	 3.670E-01	 7.861E-02	 3.657E-02	 2.428E+03	 3.496E+03	 3.231E+03	 7.944E+02	 4.348E+03	-5.061E+03	 2.429E+03	 3.504E+03	 3.222E+03	 7.899E+02	 4.341E+03	-5.067E+03	 3.490E+02	 1.726E+03	-6.192E+01	-1.377E+03	 3.169E+02	 5.075E+00	 0.000E+00	 0.000E+00	 4.923E+02	 1.060E-01	 1.302E+01	 4.081E+01	 2.700E+02	 5.075E+00	 7.917E-01
   0.447	 4.531E+00	-3.469E+00	 0.000E+00	 1.377E+00	 1.853E+00	 1.456E+00	-2.014E-01	-7.100E-01	 5.695E-01	 3.869E-01	 7.976E-02	 4.469E-02	 2.515E+03	 3.634E+03	 3.295E+03	 8.415E+02	 4.276E+03	-5.036E+03	 2.517E+03	 3.642E+03	 3.286E+03	 8.369E+02	 4.269E+03	-5.042E+03	 3.755E+02	 1.980E+03	-8.323E+00	-1.386E+03	 3.892E+02	 5.079E+00	 0.000E+00	 0.000E+00	 4.926E+02	 1.060E-01	 1.350E+01	 4.146E+01	 2.753E+02	 5.079E+00	 8.036E-01
   0.459	 4.531E+00	-3.469E+00	 0.000E+00	 1.415E+00	 1.903E+00	 1.492E+00	-2.091E-01	-7.025E-01	 5.607E-01	 4.038E-01	 7.172E-02	 5.223E-02	 2.584E+03	 3.739E+03	 3.343E+03	 8.778E+02	 4.204E+03	-4.999E+03	 2.586E+03	 3.746E+03	 3.334E+03	 8.731E+02	 4.197E+03	-5.005E+03	 3.816E+02	 2.205E+03	 1.845E+01	-1.390E+03	 4.448E+02	 5.081E+00	 0.000E+00	 0.000E+00	 4.928E+02	 1.060E-01	 1.388E+01	 4.237E+01	 2.795E+02	 5.081E+00	 8.210E-01
   0.472	 4.531E+00	-3.469E+00	 0.000E+00	 1.452E+00	 1.950E+00	 1.526E+00	-2.165E-01	-6.921E-01	 5.492E-01	 4.197E-01	 5.796E-02	 6.028E-02	 2.649E+03	 3.833E+03	 3.385E+03	 9.133E+02	 4.117E+03	-4.945E+03	 2.650E+03	 3.841E+03	 3.376E+03	 9.084E+02	 4.110E+03	-4.952E+03	 3.720E+02	 2.451E+03	 3.354E+01	-1.388E+03	 4.961E+02	 5.084E+00	 0.000E+00	 0.000E+00	 4.929E+02	 1.060E-01	 1.426E+01	 4.369E+01	 2.829E+02	 5.084E+00	 8.459E-01
   0.484	 4.531E+00	-3.469E+00	 0.000E+00	 1.486E+00	 1.995E+00	 1.557E+00	-2.238E-01	-6.791E-01	 5.352E-01	 4.359E-01	 4.185E-02	 6.871E-02	 2.711E+03	 3.923E+03	 3.423E+03	 9.479E+02	 4.015E+03	-4.875E+03	 2.712E+03	 3.930E+03	 3.414E+03	 9.429E+02	 4.007E+03	-4.881E+03	 3.471E+02	 2.709E+03	 4.388E+01	-1.384E+03	 5.450E+02	 5.086E+00	 0.000E+00	 0.000E+00	 4.931E+02	 1.060E-01	 1.464E+01	 4.535E+01	 2.863E+02	 5.086E+00	 8.777E-01
   0.497	 4.531E+00	-3.469E+00	 0.000E+00	 1.518E+00	 2.036E+00	 1.586E+00	-2.308E-01	-6.636E-01	 5.187E-01	 4.500E-01	 2.920E-02	 7.683E-02	 2.766E+03	 4.001E+03	 3.457E+03	 9.824E+02	 3.896E+03	-4.788E+03	 2.768E+03	 4.008E+03	 3.448E+03	 9.773E+02	 3.889E+03	-4.794E+03	 3.078E+02	 2.975E+03	 5.678E+01	-1.377E+03	 5.884E+02	 5.089E+00	 0.000E+00	 0.000E+00	 4.933E+02	 1.060E-01	 1.502E+01	 4.734E+01	 2.889E+02	 5.089E+00	 9.158E-01
   0.513	 4.531E+00	-3.469E+00	 0.000E+00	 1.556E+00	 2.084E+00	 1.620E+00	-2.393E-01	-6.412E-01	 4.951E-01	 4.666E-01	 2.108E-02	 8.630E-02	 2.830E+03	 4.092E+03	 3.495E+03	 1.025E+03	 3.730E+03	-4.659E+03	 2.832E+03	 4.099E+03	 3.486E+03	 1.020E+03	 3.722E+03	-4.666E+03	 2.423E+02	 3.307E+03	 8.412E+01	-1.368E+03	 6.388E+02	 5.092E+00	 0.000E+00	 0.000E+00	 4.936E+02	 1.060E-01	 1.550E+01	 5.023E+01	 2.921E+02	 5.092E+00	 9.710E-01
   0.531	 4.531E+00	-3.469E+00	 0.000E+00	 1.596E+00	 2.135E+00	 1.655E+00	-2.491E-01	-6.100E-01	 4.623E-01	 4.823E-01	 2.665E-02	 9.556E-02	 2.893E+03	 4.183E+03	 3.534E+03	 1.077E+03	 3.502E+03	-4.475E+03	 2.895E+03	 4.190E+03	 3.526E+03	 1.072E+03	 3.494E+03	-4.481E+03	 1.422E+02	 3.694E+03	 1.379E+02	-1.356E+03	 6.902E+02	 5.097E+00	 0.000E+00	 0.000E+00	 4.939E+02	 1.060E-01	 1.607E+01	 5.428E+01	 2.952E+02	 5.097E+00	 1.049E+00
   0.547	 4.531E+00	-3.469E+00	 0.000E+00	 1.625E+00	 2.170E+00	 1.679E+00	-2.568E-01	-5.802E-01	 4.311E-01	 4.884E-01	 4.174E-02	 9.993E-02	 2.931E+03	 4.242E+03	 3.556E+03	 1.119E+03	 3.288E+03	-4.294E+03	 2.933E+03	 4.248E+03	 3.548E+03	 1.113E+03	 3.280E+03	-4.301E+03	 4.422E+01	 3.989E+03	 1.981E+02	-1.346E+03	 7.265E+02	 5.100E+00	 0.000E+00	 0.000E+00	 4.942E+02	 1.060E-01	 1.655E+01	 5.821E+01	 2.968E+02	 5.100E+00	 1.124E+00
   0.559	 4.531E+00	-3.469E+00	 0.000E+00	 1.646E+00	 2.195E+00	 1.696E+00	-2.627E-01	-5.550E-01	 4.047E-01	 4.923E-01	 5.343E-02	 1.019E-01	 2.957E+03	 4.285E+03	 3.573E+03	 1.151E+03	 3.108E+03	-4.140E+03	 2.959E+03	 4.291E+03	 3.566E+03	 1.145E+03	 3.101E+03	-4.147E+03	-3.711E+01	 4.206E+03	 2.445E+02	-1.340E+03	 7.530E+02	 5.103E+00	 0.000E+00	 0.000E+00	 4.945E+02	 1.060E-01	 1.693E+01	 6.160E+01	 2.984E+02	 5.103E+00	 1.188E+00
   0.575	 4.531E+00	-3.469E+00	 0.000E+00	 1.669E+00	 2.221E+00	 1.715E+00	-2.697E-01	-5.218E-01	 3.699E-01	 4.928E-01	 6.180E-02	 1.018E-01	 2.981E+03	 4.331E+03	 3.587E+03	 1.188E+03	 2.876E+03	-3.935E+03	 2.983E+03	 4.337E+03	 3.580E+03	 1.182E+03	 2.868E+03	-3.942E+03	-1.401E+02	 4.452E+03	 2.934E+02	-1.333E+03	 7.843E+02	 5.108E+00	 0.000E+00	 0.000E+00	 4.948E+02	 1.060E-01	 1.741E+01	 6.625E+01	 3.000E+02	 5.108E+00	 1.277E+00
   0.594	 4.531E+00	-3.469E+00	 0.000E+00	 1.692E+00	 2.245E+00	 1.732E+00	-2.776E-01	-4.797E-01	 3.258E-01	 4.851E-01	 5.839E-02	 9.742E-02	 2.996E+03	 4.371E+03	 3.590E+03	 1.227E+03	 2.589E+03	-3.674E+03	 2.998E+03	 4.375E+03	 3.583E+03	 1.222E+03	 2.581E+03	-3.681E+03	-2.603E+02	 4.709E+03	 3.313E+02	-1.322E+03	 8.187E+02	 5.113E+00	 0.000E+00	 0.000E+00	 4.953E+02	 1.060E-01	 1.799E+01	 7.249E+01	 3.009E+02	 5.113E+00	 1.396E+00
   0.606	 4.531E+00	-3.469E+00	 0.000E+00	 1.703E+00	 2.255E+00	 1.741E+00	-2.823E-01	-4.505E-01	 2.954E-01	 4.782E-01	 4.505E-02	 9.251E-02	 3.002E+03	 4.393E+03	 3.588E+03	 1.251E+03	 2.394E+03	-3.493E+03	 3.004E+03	 4.398E+03	 3.582E+03	 1.245E+03	 2.386E+03	-3.500E+03	-3.336E+02	 4.858E+03	 3.417E+02	-1.315E+03	 8.420E+02	 5.117E+00	 0.000E+00	 0.000E+00	 4.956E+02	 1.060E-01	 1.837E+01	 7.722E+01	 3.019E+02	 5.117E+00	 1.486E+00
   0.622	 4.531E+00	-3.469E+00	 0.000E+00	 1.714E+00	 2.263E+00	 1.749E+00	-2.877E-01	-4.135E-01	 2.567E-01	 4.634E-01	 2.143E-02	 8.368E-02	 3.000E+03	 4.409E+03	 3.574E+03	 1.276E+03	 2.151E+03	-3.261E+03	 3.003E+03	 4.413E+03	 3.568E+03	 1.271E+03	 2.143E+03	-3.268E+03	-4.114E+02	 5.027E+03	 3.455E+02	-1.302E+03	 8.689E+02	 5.122E+00	 0.000E+00	 0.000E+00	 4.960E+02	 1.060E-01	 1.885E+01	 8.389E+01	 3.022E+02	 5.122E+00	 1.612E+00
   0.638	 4.531E+00	-3.469E+00	 0.000E+00	 1.721E+00	 2.266E+00	 1.755E+00	-2.925E-01	-3.763E-01	 2.181E-01	 4.485E-01	-3.303E-03	 7.412E-02	 2.998E+03	 4.421E+03	 3.556E+03	 1.300E+03	 1.910E+03	-3.029E+03	 3.000E+03	 4.425E+03	 3.550E+03	 1.295E+03	 1.901E+03	-3.036E+03	-4.752E+02	 5.192E+03	 3.535E+02	-1.287E+03	 8.972E+02	 5.128E+00	 0.000E+00	 0.000E+00	 4.965E+02	 1.060E-01	 1.933E+01	 9.120E+01	 3.029E+02	 5.128E+00	 1.751E+00
   0.656	 4.531E+00	-3.469E+00	 0.000E+00	 1.725E+00	 2.262E+00	 1.758E+00	-2.974E-01	-3.320E-01	 1.723E-01	 4.276E-01	-2.743E-02	 6.149E-02	 2.990E+03	 4.425E+03	 3.525E+03	 1.327E+03	 1.624E+03	-2.752E+03	 2.993E+03	 4.428E+03	 3.520E+03	 1.321E+03	 1.616E+03	-2.758E+03	-5.285E+02	 5.394E+03	 3.779E+02	-1.263E+03	 9.291E+02	 5.136E+00	 0.000E+00	 0.000E+00	 4.971E+02	 1.060E-01	 1.991E+01	 1.009E+02	 3.033E+02	 5.136E+00	 1.934E+00
   0.669	 4.531E+00	-3.469E+00	 0.000E+00	 1.724E+00	 2.254E+00	 1.758E+00	-2.999E-01	-3.032E-01	 1.425E-01	 4.115E-01	-3.560E-02	 5.281E-02	 2.981E+03	 4.416E+03	 3.497E+03	 1.343E+03	 1.440E+03	-2.571E+03	 2.984E+03	 4.419E+03	 3.493E+03	 1.338E+03	 1.432E+03	-2.577E+03	-5.485E+02	 5.544E+03	 4.095E+02	-1.242E+03	 9.475E+02	 5.141E+00	 0.000E+00	 0.000E+00	 4.976E+02	 1.060E-01	 2.029E+01	 1.078E+02	 3.030E+02	 5.141E+00	 2.064E+00
   0.684	 4.531E+00	-3.469E+00	 0.000E+00	 1.719E+00	 2.240E+00	 1.756E+00	-3.024E-01	-2.684E-01	 1.070E-01	 3.931E-01	-3.764E-02	 4.324E-02	 2.971E+03	 4.399E+03	 3.460E+03	 1.363E+03	 1.218E+03	-2.352E+03	 2.974E+03	 4.402E+03	 3.456E+03	 1.358E+03	 1.210E+03	-2.359E+03	-5.571E+02	 5.765E+03	 4.656E+02	-1.209E+03	 9.679E+02	 5.147E+00	 0.000E+00	 0.000E+00	 4.982E+02	 1.060E-01	 2.078E+01	 1.166E+02	 3.028E+02	 5.147E+00	 2.230E+00
   0.700	 4.531E+00	-3.469E+00	 0.000E+00	 1.712E+00	 2.221E+00	 1.751E+00	-3.041E-01	-2.352E-01	 7.307E-02	 3.751E-01	-3.747E-02	 3.490E-02	 2.961E+03	 4.374E+03	 3.420E+03	 1.382E+03	 1.007E+03	-2.143E+03	 2.963E+03	 4.376E+03	 3.416E+03	 1.376E+03	 9.991E+02	-2.150E+03	-5.561E+02	 6.020E+03	 5.252E+02	-1.170E+03	 9.840E+02	 5.153E+00	 4.853E+01	 1.000E+00	 4.987E+02	 1.060E-01	 2.126E+01	 1.259E+02	 3.023E+02	 5.153E+00	 2.405E+00
   0.719	 4.531E+00	-3.469E+00	 0.000E+00	 1.699E+00	 2.193E+00	 1.742E+00	-3.053E-01	-1.980E-01	 3.553E-02	 3.518E-01	-3.733E-02	 2.676E-02	 2.944E+03	 4.325E+03	 3.362E+03	 1.402E+03	 7.777E+02	-1.910E+03	 2.947E+03	 4.326E+03	 3.359E+03	 1.397E+03	 7.697E+02	-1.916E+03	-5.428E+02	 6.390E+03	 5.923E+02	-1.114E+03	 9.934E+02	 5.161E+00	 9.714E+01	 2.000E+00	 4.991E+02	 1.060E-01	 2.184E+01	 1.399E+02	 3.006E+02	 5.161E+00	 2.668E+00
   0.731	 4.531E+00	-3.469E+00	 0.000E+00	 1.687E+00	 2.171E+00	 1.735E+00	-3.054E-01	-1.754E-01	 1.292E-02	 3.387E-01	-4.352E-02	 2.339E-02	 2.935E+03	 4.287E+03	 3.324E+03	 1.415E+03	 6.414E+02	-1.767E+03	 2.937E+03	 4.288E+03	 3.320E+03	 1.410E+03	 6.334E+02	-1.773E+03	-5.303E+02	 6.682E+03	 6.239E+02	-1.073E+03	 9.952E+02	 5.165E+00	 1.336E+02	 2.750E+00	 4.991E+02	 1.060E-01	 2.223E+01	 1.521E+02	 2.996E+02	 5.165E+00	 2.898E+00
   0.747	 4.531E+00	-3.469E+00	 0.000E+00	 1.671E+00	 2.139E+00	 1.723E+00	-3.050E-01	-1.503E-01	-1.202E-02	 3.210E-01	-5.824E-02	 2.099E-02	 2.918E+03	 4.223E+03	 3.271E+03	 1.431E+03	 4.979E+02	-1.607E+03	 2.920E+03	 4.224E+03	 3.268E+03	 1.425E+03	 4.900E+02	-1.613E+03	-5.163E+02	 7.107E+03	 6.403E+02	-1.017E+03	 9.855E+02	 5.170E+00	 1.823E+02	 3.750E+00	 4.991E+02	 1.060E-01	 2.271E+01	 1.719E+02	 2.972E+02	 5.170E+00	 3.273E+00
   0.763	 4.531E+00	-3.469E+00	 0.000E+00	 1.652E+00	 2.105E+00	 1.709E+00	-3.043E-01	-1.281E-01	-3.414E-02	 3.049E-01	-7.991E-02	 2.026E-02	 2.900E+03	 4.155E+03	 3.219E+03	 1.446E+03	 3.749E+02	-1.462E+03	 2.902E+03	 4.156E+03	 3.216E+03	 1.441E+03	 3.672E+02	-1.468E+03	-5.084E+02	 7.574E+03	 6.394E+02	-9.627E+02	 9.714E+02	 5.174E+00	 2.309E+02	 4.750E+00	 4.989E+02	 1.060E-01	 2.320E+01	 1.957E+02	 2.950E+02	 5.174E+00	 3.724E+00
   0.781	 4.531E+00	-3.469E+00	 0.000E+00	 1.627E+00	 2.060E+00	 1.690E+00	-3.030E-01	-1.063E-01	-5.593E-02	 2.852E-01	-1.093E-01	 2.137E-02	 2.872E+03	 4.062E+03	 3.156E+03	 1.465E+03	 2.636E+02	-1.315E+03	 2.874E+03	 4.063E+03	 3.154E+03	 1.460E+03	 2.560E+02	-1.321E+03	-5.124E+02	 8.200E+03	 6.161E+02	-8.997E+02	 9.424E+02	 5.178E+00	 2.794E+02	 5.750E+00	 4.985E+02	 1.060E-01	 2.378E+01	 2.310E+02	 2.918E+02	 5.178E+00	 4.391E+00
   0.794	 4.531E+00	-3.469E+00	 0.000E+00	 1.609E+00	 2.028E+00	 1.675E+00	-3.020E-01	-9.542E-02	-6.725E-02	 2.711E-01	-1.253E-01	 2.299E-02	 2.847E+03	 3.991E+03	 3.116E+03	 1.479E+03	 2.137E+02	-1.235E+03	 2.850E+03	 3.991E+03	 3.114E+03	 1.474E+03	 2.063E+02	-1.241E+03	-5.281E+02	 8.654E+03	 5.924E+02	-8.611E+02	 9.134E+02	 5.180E+00	 2.987E+02	 6.151E+00	 4.981E+02	 1.060E-01	 2.417E+01	 2.587E+02	 2.892E+02	 5.180E+00	 4.916E+00
   0.809	 4.531E+00	-3.469E+00	 0.000E+00	 1.585E+00	 1.985E+00	 1.655E+00	-3.009E-01	-8.651E-02	-7.740E-02	 2.535E-01	-1.386E-01	 2.564E-02	 2.810E+03	 3.900E+03	 3.070E+03	 1.498E+03	 1.793E+02	-1.160E+03	 2.813E+03	 3.900E+03	 3.067E+03	 1.492E+03	 1.721E+02	-1.165E+03	-5.681E+02	 9.255E+03	 5.593E+02	-8.222E+02	 8.719E+02	 5.181E+00	 3.053E+02	 6.291E+00	 4.979E+02	 1.060E-01	 2.465E+01	 2.963E+02	 2.861E+02	 5.181E+00	 5.630E+00
   0.825	 4.531E+00	-3.469E+00	 0.000E+00	 1.560E+00	 1.941E+00	 1.634E+00	-3.000E-01	-8.148E-02	-8.446E-02	 2.346E-01	-1.441E-01	 2.816E-02	 2.768E+03	 3.805E+03	 3.026E+03	 1.517E+03	 1.666E+02	-1.104E+03	 2.770E+03	 3.805E+03	 3.024E+03	 1.512E+03	 1.596E+02	-1.110E+03	-6.262E+02	 9.872E+03	 5.252E+02	-7.914E+02	 8.243E+02	 5.181E+00	 3.181E+02	 6.561E+00	 4.978E+02	 1.060E-01	 2.514E+01	 3.343E+02	 2.830E+02	 5.181E+00	 6.352E+00
   0.844	 4.531E+00	-3.469E+00	 0.000E+00	 1.529E+00	 1.886E+00	 1.606E+00	-2.996E-01	-8.181E-02	-8.786E-02	 2.090E-01	-1.394E-01	 3.053E-02	 2.706E+03	 3.684E+03	 2.978E+03	 1.539E+03	 1.875E+02	-1.071E+03	 2.709E+03	 3.685E+03	 2.976E+03	 1.534E+03	 1.806E+02	-1.077E+03	-7.249E+02	 1.063E+04	 4.786E+02	-7.661E+02	 7.571E+02	 5.181E+00	 3.243E+02	 6.691E+00	 4.978E+02	 1.060E-01	 2.572E+01	 3.795E+02	 2.789E+02	 5.181E+00	 7.211E+00
   0.856	 4.531E+00	-3.469E+00	 0.000E+00	 1.508E+00	 1.849E+00	 1.586E+00	-2.997E-01	-8.619E-02	-8.683E-02	 1.909E-01	-1.332E-01	 3.134E-02	 2.660E+03	 3.605E+03	 2.950E+03	 1.554E+03	 2.236E+02	-1.072E+03	 2.663E+03	 3.606E+03	 2.948E+03	 1.549E+03	 2.169E+02	-1.078E+03	-8.082E+02	 1.114E+04	 4.398E+02	-7.591E+02	 7.102E+02	 5.180E+00	 3.304E+02	 6.816E+00	 4.980E+02	 1.060E-01	 2.611E+01	 4.082E+02	 2.765E+02	 5.180E+00	 7.756E+00
   0.872	 4.531E+00	-3.469E+00	 0.000E+00	 1.480E+00	 1.802E+00	 1.561E+00	-3.003E-01	-9.659E-02	-8.151E-02	 1.652E-01	-1.243E-01	 3.091E-02	 2.596E+03	 3.504E+03	 2.917E+03	 1.570E+03	 2.964E+02	-1.101E+03	 2.599E+03	 3.505E+03	 2.915E+03	 1.566E+03	 2.899E+02	-1.107E+03	-9.278E+02	 1.177E+04	 3.758E+02	-7.592E+02	 6.465E+02	 5.181E+00	 3.364E+02	 6.937E+00	 4.983E+02	 1.060E-01	 2.660E+01	 4.413E+02	 2.734E+02	 5.181E+00	 8.386E+00
   0.888	 4.531E+00	-3.469E+00	 0.000E+00	 1.453E+00	 1.755E+00	 1.534E+00	-3.014E-01	-1.105E-01	-7.307E-02	 1.382E-01	-1.188E-01	 2.927E-02	 2.530E+03	 3.405E+03	 2.886E+03	 1.586E+03	 3.891E+02	-1.152E+03	 2.533E+03	 3.406E+03	 2.884E+03	 1.582E+03	 3.828E+02	-1.158E+03	-1.052E+03	 1.240E+04	 2.978E+02	-7.658E+02	 5.836E+02	 5.182E+00	 3.478E+02	 7.166E+00	 4.988E+02	 1.060E-01	 2.708E+01	 4.723E+02	 2.707E+02	 5.182E+00	 8.972E+00
   0.906	 4.531E+00	-3.469E+00	 0.000E+00	 1.419E+00	 1.698E+00	 1.501E+00	-3.031E-01	-1.325E-01	-5.780E-02	 1.027E-01	-1.157E-01	 2.526E-02	 2.448E+03	 3.288E+03	 2.851E+03	 1.604E+03	 5.321E+02	-1.248E+03	 2.451E+03	 3.289E+03	 2.848E+03	 1.600E+03	 5.260E+02	-1.253E+03	-1.200E+03	 1.313E+04	 1.846E+02	-7.812E+02	 5.072E+02	 5.185E+00	 3.533E+02	 7.274E+00	 4.995E+02	 1.060E-01	 2.766E+01	 5.062E+02	 2.676E+02	 5.185E+00	 9.611E+00
   0.919	 4.531E+00	-3.469E+00	 0.000E+00	 1.396E+00	 1.661E+00	 1.478E+00	-3.044E-01	-1.503E-01	-4.427E-02	 7.748E-02	-1.145E-01	 2.131E-02	 2.392E+03	 3.211E+03	 2.828E+03	 1.615E+03	 6.456E+02	-1.333E+03	 2.395E+03	 3.212E+03	 2.825E+03	 1.611E+03	 6.397E+02	-1.338E+03	-1.288E+03	 1.360E+04	 1.011E+02	-7.954E+02	 4.566E+02	 5.188E+00	 3.587E+02	 7.378E+00	 5.000E+02	 1.060E-01	 2.805E+01	 5.270E+02	 2.657E+02	 5.188E+00	 9.999E+00
   0.934	 4.531E+00	-3.469E+00	 0.000E+00	 1.368E+00	 1.617E+00	 1.450E+00	-3.059E-01	-1.755E-01	-2.332E-02	 4.431E-02	-1.123E-01	 1.503E-02	 2.323E+03	 3.117E+03	 2.798E+03	 1.631E+03	 8.074E+02	-1.463E+03	 2.326E+03	 3.119E+03	 2.795E+03	 1.626E+03	 8.017E+02	-1.468E+03	-1.374E+03	 1.417E+04	-3.819E+00	-8.129E+02	 3.962E+02	 5.194E+00	 3.639E+02	 7.476E+00	 5.008E+02	 1.060E-01	 2.854E+01	 5.514E+02	 2.635E+02	 5.194E+00	 1.045E+01
   0.950	 4.531E+00	-3.469E+00	 0.000E+00	 1.339E+00	 1.573E+00	 1.421E+00	-3.072E-01	-2.026E-01	 6.421E-04	 1.024E-02	-1.058E-01	 8.051E-03	 2.257E+03	 3.023E+03	 2.768E+03	 1.647E+03	 9.810E+02	-1.609E+03	 2.260E+03	 3.025E+03	 2.765E+03	 1.643E+03	 9.754E+02	-1.614E+03	-1.432E+03	 1.473E+04	-1.019E+02	-8.289E+02	 3.369E+02	 5.201E+00	 3.737E+02	 7.660E+00	 5.017E+02	 1.060E-01	 2.903E+01	 5.749E+02	 2.614E+02	 5.201E+00	 1.088E+01
   0.969	 4.531E+00	-3.469E+00	 0.000E+00	 1.305E+00	 1.523E+00	 1.386E+00	-3.083E-01	-2.376E-01	 3.416E-02	-3.023E-02	-9.296E-02	-1.106E-03	 2.184E+03	 2.918E+03	 2.732E+03	 1.669E+03	 1.207E+03	-1.809E+03	 2.187E+03	 2.920E+03	 2.729E+03	 1.665E+03	 1.201E+03	-1.814E+03	-1.451E+03	 1.538E+04	-2.063E+02	-8.462E+02	 2.731E+02	 5.211E+00	 3.784E+02	 7.745E+00	 5.028E+02	 1.060E-01	 2.961E+01	 6.017E+02	 2.595E+02	 5.211E+00	 1.137E+01
   0.981	 4.531E+00	-3.469E+00	 0.000E+00	 1.282E+00	 1.491E+00	 1.363E+00	-3.086E-01	-2.621E-01	 5.936E-02	-5.777E-02	-8.021E-02	-7.446E-03	 2.139E+03	 2.847E+03	 2.706E+03	 1.685E+03	 1.365E+03	-1.956E+03	 2.142E+03	 2.850E+03	 2.702E+03	 1.681E+03	 1.360E+03	-1.961E+03	-1.427E+03	 1.582E+04	-2.656E+02	-8.518E+02	 2.318E+02	 5.218E+00	 3.829E+02	 7.826E+00	 5.037E+02	 1.060E-01	 3.000E+01	 6.183E+02	 2.580E+02	 5.218E+00	 1.167E+01
   0.997	 4.531E+00	-3.469E+00	 0.000E+00	 1.253E+00	 1.454E+00	 1.334E+00	-3.085E-01	-2.933E-01	 9.390E-02	-8.991E-02	-6.394E-02	-1.510E-02	 2.092E+03	 2.768E+03	 2.675E+03	 1.707E+03	 1.571E+03	-2.155E+03	 2.095E+03	 2.771E+03	 2.671E+03	 1.703E+03	 1.566E+03	-2.160E+03	-1.351E+03	 1.635E+04	-3.296E+02	-8.557E+02	 1.890E+02	 5.227E+00	 3.873E+02	 7.901E+00	 5.048E+02	 1.060E-01	 3.049E+01	 6.370E+02	 2.569E+02	 5.227E+00	 1.200E+01
   1.012	 4.531E+00	-3.469E+00	 0.000E+00	 1.226E+00	 1.419E+00	 1.305E+00	-3.081E-01	-3.245E-01	 1.303E-01	-1.216E-01	-4.835E-02	-2.235E-02	 2.051E+03	 2.690E+03	 2.642E+03	 1.729E+03	 1.779E+03	-2.363E+03	 2.054E+03	 2.693E+03	 2.637E+03	 1.726E+03	 1.774E+03	-2.368E+03	-1.245E+03	 1.688E+04	-3.895E+02	-8.534E+02	 1.487E+02	 5.235E+00	 3.954E+02	 8.039E+00	 5.059E+02	 1.060E-01	 3.098E+01	 6.530E+02	 2.558E+02	 5.235E+00	 1.228E+01
   1.025	 4.531E+00	-3.469E+00	 0.000E+00	 1.204E+00	 1.392E+00	 1.282E+00	-3.074E-01	-3.494E-01	 1.610E-01	-1.456E-01	-3.787E-02	-2.763E-02	 2.024E+03	 2.632E+03	 2.615E+03	 1.748E+03	 1.946E+03	-2.537E+03	 2.027E+03	 2.635E+03	 2.610E+03	 1.744E+03	 1.941E+03	-2.542E+03	-1.131E+03	 1.731E+04	-4.346E+02	-8.472E+02	 1.208E+02	 5.241E+00	 3.992E+02	 8.102E+00	 5.069E+02	 1.060E-01	 3.138E+01	 6.630E+02	 2.550E+02	 5.241E+00	 1.245E+01
   1.044	 4.531E+00	-3.469E+00	 0.000E+00	 1.172E+00	 1.356E+00	 1.248E+00	-3.061E-01	-3.860E-01	 2.085E-01	-1.777E-01	-2.626E-02	-3.429E-02	 1.993E+03	 2.555E+03	 2.577E+03	 1.777E+03	 2.193E+03	-2.805E+03	 1.996E+03	 2.559E+03	 2.572E+03	 1.773E+03	 2.188E+03	-2.810E+03	-9.299E+02	 1.796E+04	-5.004E+02	-8.349E+02	 8.693E+01	 5.249E+00	 4.028E+02	 8.160E+00	 5.084E+02	 1.060E-01	 3.197E+01	 6.723E+02	 2.547E+02	 5.249E+00	 1.261E+01
   1.059	 4.531E+00	-3.469E+00	 0.000E+00	 1.147E+00	 1.329E+00	 1.220E+00	-3.050E-01	-4.153E-01	 2.490E-01	-2.023E-01	-1.965E-02	-3.861E-02	 1.975E+03	 2.497E+03	 2.546E+03	 1.800E+03	 2.391E+03	-3.034E+03	 1.979E+03	 2.502E+03	 2.540E+03	 1.797E+03	 2.387E+03	-3.039E+03	-7.369E+02	 1.851E+04	-5.520E+02	-8.193E+02	 6.479E+01	 5.254E+00	 4.063E+02	 8.214E+00	 5.096E+02	 1.060E-01	 3.246E+01	 6.721E+02	 2.546E+02	 5.254E+00	 1.259E+01
   1.075	 4.531E+00	-3.469E+00	 0.000E+00	 1.123E+00	 1.304E+00	 1.192E+00	-3.040E-01	-4.433E-01	 2.893E-01	-2.252E-01	-1.196E-02	-4.216E-02	 1.961E+03	 2.446E+03	 2.516E+03	 1.824E+03	 2.580E+03	-3.263E+03	 1.964E+03	 2.451E+03	 2.510E+03	 1.820E+03	 2.575E+03	-3.267E+03	-5.390E+02	 1.906E+04	-5.987E+02	-8.044E+02	 4.706E+01	 5.257E+00	 4.126E+02	 8.309E+00	 5.108E+02	 1.060E-01	 3.295E+01	 6.663E+02	 2.546E+02	 5.257E+00	 1.248E+01
   1.088	 4.531E+00	-3.469E+00	 0.000E+00	 1.105E+00	 1.286E+00	 1.170E+00	-3.034E-01	-4.644E-01	 3.211E-01	-2.410E-01	-4.971E-03	-4.409E-02	 1.954E+03	 2.412E+03	 2.495E+03	 1.843E+03	 2.720E+03	-3.443E+03	 1.957E+03	 2.417E+03	 2.489E+03	 1.839E+03	 2.716E+03	-3.448E+03	-3.793E+02	 1.950E+04	-6.304E+02	-7.929E+02	 3.768E+01	 5.260E+00	 4.154E+02	 8.350E+00	 5.117E+02	 1.060E-01	 3.335E+01	 6.563E+02	 2.551E+02	 5.260E+00	 1.228E+01
   1.106	 4.531E+00	-3.469E+00	 0.000E+00	 1.080E+00	 1.263E+00	 1.138E+00	-3.029E-01	-4.939E-01	 3.674E-01	-2.638E-01	 1.029E-02	-4.626E-02	 1.944E+03	 2.368E+03	 2.465E+03	 1.871E+03	 2.913E+03	-3.707E+03	 1.947E+03	 2.374E+03	 2.458E+03	 1.868E+03	 2.908E+03	-3.712E+03	-1.473E+02	 2.017E+04	-6.672E+02	-7.783E+02	 2.889E+01	 5.262E+00	 4.180E+02	 8.388E+00	 5.130E+02	 1.060E-01	 3.394E+01	 6.334E+02	 2.558E+02	 5.262E+00	 1.185E+01
   1.122	 4.531E+00	-3.469E+00	 0.000E+00	 1.061E+00	 1.248E+00	 1.112E+00	-3.033E-01	-5.153E-01	 4.035E-01	-2.800E-01	 2.734E-02	-4.711E-02	 1.937E+03	 2.343E+03	 2.443E+03	 1.896E+03	 3.047E+03	-3.915E+03	 1.941E+03	 2.349E+03	 2.435E+03	 1.892E+03	 3.043E+03	-3.919E+03	 2.818E+01	 2.073E+04	-6.855E+02	-7.711E+02	 2.964E+01	 5.264E+00	 4.204E+02	 8.421E+00	 5.139E+02	 1.060E-01	 3.443E+01	 6.061E+02	 2.567E+02	 5.264E+00	 1.134E+01
   1.137	 4.531E+00	-3.469E+00	 0.000E+00	 1.044E+00	 1.235E+00	 1.087E+00	-3.041E-01	-5.345E-01	 4.375E-01	-2.966E-01	 4.706E-02	-4.792E-02	 1.928E+03	 2.322E+03	 2.421E+03	 1.920E+03	 3.165E+03	-4.111E+03	 1.932E+03	 2.328E+03	 2.413E+03	 1.917E+03	 3.161E+03	-4.115E+03	 1.877E+02	 2.129E+04	-6.983E+02	-7.682E+02	 3.418E+01	 5.265E+00	 4.244E+02	 8.478E+00	 5.146E+02	 1.060E-01	 3.493E+01	 5.750E+02	 2.574E+02	 5.265E+00	 1.075E+01
   1.150	 4.531E+00	-3.469E+00	 0.000E+00	 1.033E+00	 1.227E+00	 1.067E+00	-3.052E-01	-5.475E-01	 4.626E-01	-3.096E-01	 6.316E-02	-4.845E-02	 1.919E+03	 2.311E+03	 2.404E+03	 1.940E+03	 3.243E+03	-4.256E+03	 1.923E+03	 2.317E+03	 2.396E+03	 1.937E+03	 3.239E+03	-4.260E+03	 2.995E+02	 2.173E+04	-7.049E+02	-7.695E+02	 4.261E+01	 5.266E+00	 4.261E+02	 8.501E+00	 5.151E+02	 1.060E-01	 3.532E+01	 5.471E+02	 2.580E+02	 5.266E+00	 1.023E+01
   1.169	 4.531E+00	-3.469E+00	 0.000E+00	 1.018E+00	 1.218E+00	 1.039E+00	-3.076E-01	-5.632E-01	 4.965E-01	-3.275E-01	 8.575E-02	-4.903E-02	 1.905E+03	 2.304E+03	 2.380E+03	 1.972E+03	 3.332E+03	-4.451E+03	 1.909E+03	 2.310E+03	 2.372E+03	 1.968E+03	 3.328E+03	-4.455E+03	 4.433E+02	 2.237E+04	-7.130E+02	-7.789E+02	 6.251E+01	 5.267E+00	 4.274E+02	 8.521E+00	 5.155E+02	 1.060E-01	 3.591E+01	 5.029E+02	 2.591E+02	 5.267E+00	 9.400E+00
   1.184	 4.531E+00	-3.469E+00	 0.000E+00	 1.009E+00	 1.214E+00	 1.017E+00	-3.103E-01	-5.715E-01	 5.201E-01	-3.431E-01	 1.007E-01	-4.983E-02	 1.889E+03	 2.305E+03	 2.360E+03	 2.000E+03	 3.376E+03	-4.585E+03	 1.893E+03	 2.311E+03	 2.351E+03	 1.996E+03	 3.372E+03	-4.589E+03	 5.364E+02	 2.290E+04	-7.199E+02	-7.926E+02	 8.609E+01	 5.269E+00	 4.285E+02	 8.537E+00	 5.156E+02	 1.060E-01	 3.641E+01	 4.658E+02	 2.598E+02	 5.269E+00	 8.704E+00
   1.200	 4.531E+00	-3.469E+00	 0.000E+00	 1.001E+00	 1.212E+00	 9.961E-01	-3.135E-01	-5.766E-01	 5.405E-01	-3.585E-01	 1.122E-01	-5.081E-02	 1.871E+03	 2.310E+03	 2.339E+03	 2.030E+03	 3.400E+03	-4.699E+03	 1.875E+03	 2.317E+03	 2.331E+03	 2.026E+03	 3.396E+03	-4.703E+03	 6.160E+02	 2.340E+04	-7.265E+02	-8.090E+02	 1.145E+02	 5.270E+00	 4.299E+02	 8.561E+00	 5.156E+02	 1.060E-01	 3.690E+01	 4.305E+02	 2.604E+02	 5.270E+00	 8.041E+00
   1.219	 4.531E+00	-3.469E+00	 0.000E+00	 9.954E-01	 1.214E+00	 9.726E-01	-3.180E-01	-5.774E-01	 5.595E-01	-3.765E-01	 1.209E-01	-5.229E-02	 1.849E+03	 2.327E+03	 2.314E+03	 2.069E+03	 3.396E+03	-4.800E+03	 1.853E+03	 2.333E+03	 2.305E+03	 2.066E+03	 3.392E+03	-4.804E+03	 6.924E+02	 2.399E+04	-7.315E+02	-8.337E+02	 1.577E+02	 5.273E+00	 4.302E+02	 8.568E+00	 5.153E+02	 1.060E-01	 3.749E+01	 3.922E+02	 2.612E+02	 5.273E+00	 7.322E+00
   1.234	 4.531E+00	-3.469E+00	 0.000E+00	 9.934E-01	 1.219E+00	 9.551E-01	-3.224E-01	-5.727E-01	 5.695E-01	-3.915E-01	 1.245E-01	-5.381E-02	 1.830E+03	 2.346E+03	 2.291E+03	 2.106E+03	 3.361E+03	-4.848E+03	 1.834E+03	 2.353E+03	 2.282E+03	 2.103E+03	 3.357E+03	-4.852E+03	 7.420E+02	 2.445E+04	-7.275E+02	-8.538E+02	 2.005E+02	 5.274E+00	 4.303E+02	 8.573E+00	 5.149E+02	 1.060E-01	 3.799E+01	 3.662E+02	 2.617E+02	 5.274E+00	 6.836E+00
   1.250	 4.531E+00	-3.469E+00	 0.000E+00	 9.930E-01	 1.225E+00	 9.390E-01	-3.272E-01	-5.647E-01	 5.758E-01	-4.058E-01	 1.271E-01	-5.539E-02	 1.813E+03	 2.370E+03	 2.268E+03	 2.146E+03	 3.306E+03	-4.871E+03	 1.817E+03	 2.376E+03	 2.259E+03	 2.142E+03	 3.301E+03	-4.875E+03	 7.862E+02	 2.490E+04	-7.147E+02	-8.723E+02	 2.477E+02	 5.276E+00	 4.298E+02	 8.574E+00	 5.143E+02	 1.060E-01	 3.848E+01	 3.448E+02	 2.622E+02	 5.276E+00	 6.435E+00
   1.263	 4.531E+00	-3.469E+00	 0.000E+00	 9.941E-01	 1.232E+00	 9.274E-01	-3.314E-01	-5.553E-01	 5.772E-01	-4.161E-01	 1.278E-01	-5.666E-02	 1.802E+03	 2.394E+03	 2.249E+03	 2.180E+03	 3.242E+03	-4.866E+03	 1.806E+03	 2.400E+03	 2.240E+03	 2.177E+03	 3.238E+03	-4.870E+03	 8.166E+02	 2.523E+04	-6.955E+02	-8.855E+02	 2.907E+02	 5.276E+00	 4.293E+02	 8.570E+00	 5.138E+02	 1.060E-01	 3.888E+01	 3.321E+02	 2.628E+02	 5.276E+00	 6.197E+00
   1.281	 4.531E+00	-3.469E+00	 0.000E+00	 9.979E-01	 1.244E+00	 9.122E-01	-3.383E-01	-5.369E-01	 5.740E-01	-4.303E-01	 1.277E-01	-5.842E-02	 1.790E+03	 2.434E+03	 2.220E+03	 2.236E+03	 3.121E+03	-4.826E+03	 1.794E+03	 2.440E+03	 2.211E+03	 2.232E+03	 3.116E+03	-4.830E+03	 8.562E+02	 2.571E+04	-6.522E+02	-8.989E+02	 3.593E+02	 5.277E+00	 4.286E+02	 8.564E+00	 5.130E+02	 1.060E-01	 3.947E+01	 3.196E+02	 2.636E+02	 5.277E+00	 5.963E+00
   1.297	 4.531E+00	-3.469E+00	 0.000E+00	 1.003E+00	 1.256E+00	 9.021E-01	-3.448E-01	-5.169E-01	 5.648E-01	-4.396E-01	 1.244E-01	-5.959E-02	 1.789E+03	 2.475E+03	 2.196E+03	 2.286E+03	 2.990E+03	-4.754E+03	 1.794E+03	 2.481E+03	 2.187E+03	 2.282E+03	 2.985E+03	-4.758E+03	 8.813E+02	 2.608E+04	-6.003E+02	-9.022E+02	 4.233E+02	 5.276E+00	 4.277E+02	 8.556E+00	 5.123E+02	 1.060E-01	 3.997E+01	 3.164E+02	 2.647E+02	 5.276E+00	 5.903E+00
   1.312	 4.531E+00	-3.469E+00	 0.000E+00	 1.009E+00	 1.270E+00	 8.937E-01	-3.518E-01	-4.945E-01	 5.518E-01	-4.472E-01	 1.191E-01	-6.048E-02	 1.794E+03	 2.518E+03	 2.173E+03	 2.337E+03	 2.843E+03	-4.659E+03	 1.799E+03	 2.523E+03	 2.164E+03	 2.334E+03	 2.838E+03	-4.663E+03	 8.998E+02	 2.643E+04	-5.405E+02	-8.989E+02	 4.885E+02	 5.275E+00	 4.255E+02	 8.532E+00	 5.115E+02	 1.060E-01	 4.046E+01	 3.170E+02	 2.658E+02	 5.275E+00	 5.916E+00
   1.325	 4.531E+00	-3.469E+00	 0.000E+00	 1.016E+00	 1.282E+00	 8.886E-01	-3.579E-01	-4.744E-01	 5.378E-01	-4.516E-01	 1.122E-01	-6.093E-02	 1.805E+03	 2.556E+03	 2.155E+03	 2.380E+03	 2.709E+03	-4.563E+03	 1.809E+03	 2.561E+03	 2.146E+03	 2.376E+03	 2.705E+03	-4.567E+03	 9.073E+02	 2.670E+04	-4.858E+02	-8.904E+02	 5.429E+02	 5.273E+00	 4.243E+02	 8.517E+00	 5.109E+02	 1.060E-01	 4.086E+01	 3.209E+02	 2.670E+02	 5.273E+00	 5.991E+00
   1.344	 4.531E+00	-3.469E+00	 0.000E+00	 1.026E+00	 1.301E+00	 8.833E-01	-3.677E-01	-4.414E-01	 5.116E-01	-4.558E-01	 9.722E-02	-6.135E-02	 1.829E+03	 2.618E+03	 2.129E+03	 2.445E+03	 2.490E+03	-4.392E+03	 1.834E+03	 2.623E+03	 2.121E+03	 2.441E+03	 2.485E+03	-4.396E+03	 9.049E+02	 2.706E+04	-3.955E+02	-8.696E+02	 6.283E+02	 5.271E+00	 4.229E+02	 8.499E+00	 5.101E+02	 1.060E-01	 4.145E+01	 3.311E+02	 2.691E+02	 5.271E+00	 6.184E+00
   1.359	 4.531E+00	-3.469E+00	 0.000E+00	 1.037E+00	 1.318E+00	 8.819E-01	-3.765E-01	-4.111E-01	 4.842E-01	-4.565E-01	 8.138E-02	-6.134E-02	 1.859E+03	 2.673E+03	 2.111E+03	 2.499E+03	 2.286E+03	-4.220E+03	 1.864E+03	 2.678E+03	 2.103E+03	 2.496E+03	 2.281E+03	-4.224E+03	 8.837E+02	 2.733E+04	-3.114E+02	-8.428E+02	 7.001E+02	 5.269E+00	 4.215E+02	 8.480E+00	 5.095E+02	 1.060E-01	 4.194E+01	 3.438E+02	 2.712E+02	 5.269E+00	 6.425E+00
   1.375	 4.531E+00	-3.469E+00	 0.000E+00	 1.049E+00	 1.335E+00	 8.823E-01	-3.856E-01	-3.795E-01	 4.539E-01	-4.561E-01	 6.454E-02	-6.131E-02	 1.894E+03	 2.731E+03	 2.094E+03	 2.553E+03	 2.071E+03	-4.032E+03	 1.899E+03	 2.734E+03	 2.086E+03	 2.550E+03	 2.066E+03	-4.036E+03	 8.485E+02	 2.758E+04	-2.219E+02	-8.119E+02	 7.719E+02	 5.267E+00	 4.185E+02	 8.436E+00	 5.090E+02	 1.060E-01	 4.244E+01	 3.587E+02	 2.735E+02	 5.267E+00	 6.704E+00
   1.388	 4.531E+00	-3.469E+00	 0.000E+00	 1.059E+00	 1.350E+00	 8.844E-01	-3.931E-01	-3.531E-01	 4.269E-01	-4.546E-01	 5.054E-02	-6.126E-02	 1.926E+03	 2.778E+03	 2.082E+03	 2.596E+03	 1.891E+03	-3.869E+03	 1.931E+03	 2.781E+03	 2.075E+03	 2.592E+03	 1.886E+03	-3.872E+03	 8.067E+02	 2.776E+04	-1.455E+02	-7.833E+02	 8.292E+02	 5.265E+00	 4.169E+02	 8.411E+00	 5.086E+02	 1.060E-01	 4.283E+01	 3.725E+02	 2.755E+02	 5.265E+00	 6.964E+00
   1.406	 4.531E+00	-3.469E+00	 0.000E+00	 1.077E+00	 1.372E+00	 8.901E-01	-4.044E-01	-3.122E-01	 3.834E-01	-4.514E-01	 3.028E-02	-6.133E-02	 1.978E+03	 2.849E+03	 2.067E+03	 2.657E+03	 1.611E+03	-3.606E+03	 1.983E+03	 2.852E+03	 2.060E+03	 2.654E+03	 1.606E+03	-3.610E+03	 7.233E+02	 2.800E+04	-2.495E+01	-7.371E+02	 9.128E+02	 5.264E+00	 4.153E+02	 8.385E+00	 5.082E+02	 1.060E-01	 4.342E+01	 3.955E+02	 2.785E+02	 5.264E+00	 7.397E+00
   1.422	 4.531E+00	-3.469E+00	 0.000E+00	 1.093E+00	 1.390E+00	 8.978E-01	-4.137E-01	-2.772E-01	 3.443E-01	-4.478E-01	 1.470E-02	-6.156E-02	 2.025E+03	 2.909E+03	 2.058E+03	 2.706E+03	 1.370E+03	-3.372E+03	 2.030E+03	 2.911E+03	 2.052E+03	 2.702E+03	 1.365E+03	-3.376E+03	 6.300E+02	 2.817E+04	 7.948E+01	-6.961E+02	 9.785E+02	 5.265E+00	 4.137E+02	 8.357E+00	 5.080E+02	 1.060E-01	 4.392E+01	 4.173E+02	 2.812E+02	 5.265E+00	 7.803E+00
   1.438	 4.531E+00	-3.469E+00	 0.000E+00	 1.110E+00	 1.409E+00	 9.073E-01	-4.226E-01	-2.419E-01	 3.041E-01	-4.443E-01	-5.299E-04	-6.208E-02	 2.071E+03	 2.967E+03	 2.051E+03	 2.751E+03	 1.128E+03	-3.132E+03	 2.076E+03	 2.969E+03	 2.045E+03	 2.747E+03	 1.122E+03	-3.136E+03	 5.238E+02	 2.832E+04	 1.827E+02	-6.560E+02	 1.041E+03	 5.265E+00	 4.104E+02	 8.297E+00	 5.079E+02	 1.060E-01	 4.441E+01	 4.402E+02	 2.837E+02	 5.265E+00	 8.230E+00
   1.450	 4.531E+00	-3.469E+00	 0.000E+00	 1.125E+00	 1.423E+00	 9.166E-01	-4.292E-01	-2.135E-01	 2.713E-01	-4.416E-01	-1.279E-02	-6.271E-02	 2.107E+03	 3.012E+03	 2.048E+03	 2.785E+03	 9.334E+02	-2.936E+03	 2.112E+03	 3.014E+03	 2.043E+03	 2.781E+03	 9.279E+02	-2.940E+03	 4.277E+02	 2.842E+04	 2.625E+02	-6.248E+02	 1.087E+03	 5.267E+00	 4.088E+02	 8.264E+00	 5.079E+02	 1.060E-01	 4.481E+01	 4.595E+02	 2.856E+02	 5.267E+00	 8.588E+00
   1.469	 4.531E+00	-3.469E+00	 0.000E+00	 1.149E+00	 1.445E+00	 9.328E-01	-4.384E-01	-1.713E-01	 2.218E-01	-4.372E-01	-3.154E-02	-6.371E-02	 2.162E+03	 3.076E+03	 2.048E+03	 2.830E+03	 6.465E+02	-2.641E+03	 2.167E+03	 3.078E+03	 2.043E+03	 2.826E+03	 6.408E+02	-2.645E+03	 2.708E+02	 2.855E+04	 3.738E+02	-5.794E+02	 1.148E+03	 5.270E+00	 4.072E+02	 8.231E+00	 5.081E+02	 1.060E-01	 4.540E+01	 4.892E+02	 2.885E+02	 5.270E+00	 9.139E+00
   1.484	 4.531E+00	-3.469E+00	 0.000E+00	 1.170E+00	 1.463E+00	 9.489E-01	-4.448E-01	-1.369E-01	 1.813E-01	-4.340E-01	-4.877E-02	-6.475E-02	 2.204E+03	 3.126E+03	 2.053E+03	 2.862E+03	 4.150E+02	-2.398E+03	 2.209E+03	 3.127E+03	 2.049E+03	 2.858E+03	 4.093E+02	-2.401E+03	 1.309E+02	 2.863E+04	 4.533E+02	-5.459E+02	 1.190E+03	 5.273E+00	 4.056E+02	 8.197E+00	 5.085E+02	 1.060E-01	 4.589E+01	 5.141E+02	 2.906E+02	 5.273E+00	 9.598E+00
   1.500	 4.531E+00	-3.469E+00	 0.000E+00	 1.193E+00	 1.480E+00	 9.665E-01	-4.504E-01	-1.035E-01	 1.418E-01	-4.306E-01	-6.685E-02	-6.573E-02	 2.245E+03	 3.173E+03	 2.062E+03	 2.889E+03	 1.915E+02	-2.160E+03	 2.250E+03	 3.173E+03	 2.058E+03	 2.885E+03	 1.857E+02	-2.164E+03	-9.092E+00	 2.870E+04	 5.229E+02	-5.152E+02	 1.226E+03	 5.277E+00	 4.024E+02	 8.125E+00	 5.089E+02	 1.060E-01	 4.639E+01	 5.381E+02	 2.925E+02	 5.277E+00	 1.004E+01
   1.513	 4.531E+00	-3.469E+00	 0.000E+00	 1.211E+00	 1.494E+00	 9.818E-01	-4.540E-01	-7.778E-02	 1.114E-01	-4.275E-01	-8.095E-02	-6.624E-02	 2.277E+03	 3.206E+03	 2.073E+03	 2.906E+03	 2.156E+01	-1.977E+03	 2.282E+03	 3.206E+03	 2.070E+03	 2.902E+03	 1.563E+01	-1.981E+03	-1.191E+02	 2.875E+04	 5.697E+02	-4.929E+02	 1.247E+03	 5.280E+00	 4.009E+02	 8.088E+00	 5.094E+02	 1.060E-01	 4.678E+01	 5.560E+02	 2.941E+02	 5.280E+00	 1.037E+01
   1.531	 4.531E+00	-3.469E+00	 0.000E+00	 1.240E+00	 1.513E+00	 1.007E+00	-4.581E-01	-4.132E-02	 6.822E-02	-4.224E-01	-1.020E-01	-6.673E-02	 2.323E+03	 3.253E+03	 2.096E+03	 2.925E+03	-2.188E+02	-1.717E+03	 2.328E+03	 3.253E+03	 2.092E+03	 2.920E+03	-2.248E+02	-1.721E+03	-2.742E+02	 2.881E+04	 6.275E+02	-4.637E+02	 1.269E+03	 5.284E+00	 3.994E+02	 8.051E+00	 5.102E+02	 1.060E-01	 4.738E+01	 5.800E+02	 2.962E+02	 5.284E+00	 1.081E+01
   1.547	 4.531E+00	-3.469E+00	 0.000E+00	 1.265E+00	 1.528E+00	 1.029E+00	-4.600E-01	-1.393E-02	 3.571E-02	-4.167E-01	-1.166E-01	-6.632E-02	 2.361E+03	 3.287E+03	 2.123E+03	 2.932E+03	-3.984E+02	-1.521E+03	 2.366E+03	 3.286E+03	 2.120E+03	 2.927E+03	-4.045E+02	-1.525E+03	-3.844E+02	 2.885E+04	 6.628E+02	-4.429E+02	 1.274E+03	 5.288E+00	 3.979E+02	 8.012E+00	 5.110E+02	 1.060E-01	 4.787E+01	 5.953E+02	 2.979E+02	 5.288E+00	 1.108E+01
   1.562	 4.531E+00	-3.469E+00	 0.000E+00	 1.290E+00	 1.542E+00	 1.052E+00	-4.611E-01	 1.118E-02	 5.743E-03	-4.103E-01	-1.299E-01	-6.554E-02	 2.398E+03	 3.319E+03	 2.154E+03	 2.934E+03	-5.638E+02	-1.341E+03	 2.404E+03	 3.317E+03	 2.152E+03	 2.930E+03	-5.699E+02	-1.345E+03	-4.768E+02	 2.888E+04	 6.911E+02	-4.248E+02	 1.274E+03	 5.291E+00	 3.950E+02	 7.934E+00	 5.119E+02	 1.060E-01	 4.837E+01	 6.067E+02	 2.996E+02	 5.291E+00	 1.129E+01
   1.575	 4.531E+00	-3.469E+00	 0.000E+00	 1.310E+00	 1.552E+00	 1.072E+00	-4.612E-01	 2.895E-02	-1.566E-02	-4.042E-01	-1.388E-01	-6.441E-02	 2.429E+03	 3.341E+03	 2.184E+03	 2.931E+03	-6.816E+02	-1.213E+03	 2.435E+03	 3.340E+03	 2.182E+03	 2.927E+03	-6.877E+02	-1.217E+03	-5.319E+02	 2.890E+04	 7.071E+02	-4.120E+02	 1.267E+03	 5.294E+00	 3.936E+02	 7.895E+00	 5.127E+02	 1.060E-01	 4.877E+01	 6.120E+02	 3.010E+02	 5.294E+00	 1.138E+01
   1.594	 4.531E+00	-3.469E+00	 0.000E+00	 1.340E+00	 1.567E+00	 1.102E+00	-4.604E-01	 5.180E-02	-4.364E-02	-3.934E-01	-1.486E-01	-6.181E-02	 2.477E+03	 3.370E+03	 2.236E+03	 2.920E+03	-8.343E+02	-1.048E+03	 2.483E+03	 3.369E+03	 2.234E+03	 2.915E+03	-8.406E+02	-1.052E+03	-5.816E+02	 2.892E+04	 7.215E+02	-3.936E+02	 1.243E+03	 5.298E+00	 3.922E+02	 7.855E+00	 5.139E+02	 1.060E-01	 4.936E+01	 6.136E+02	 3.032E+02	 5.298E+00	 1.140E+01
   1.609	 4.531E+00	-3.469E+00	 0.000E+00	 1.365E+00	 1.577E+00	 1.128E+00	-4.586E-01	 6.605E-02	-6.181E-02	-3.828E-01	-1.550E-01	-5.900E-02	 2.520E+03	 3.392E+03	 2.285E+03	 2.903E+03	-9.327E+02	-9.442E+02	 2.525E+03	 3.390E+03	 2.284E+03	 2.898E+03	-9.390E+02	-9.484E+02	-5.800E+02	 2.893E+04	 7.221E+02	-3.801E+02	 1.216E+03	 5.300E+00	 3.908E+02	 7.816E+00	 5.149E+02	 1.060E-01	 4.986E+01	 6.076E+02	 3.052E+02	 5.300E+00	 1.128E+01
   1.625	 4.531E+00	-3.469E+00	 0.000E+00	 1.390E+00	 1.587E+00	 1.155E+00	-4.562E-01	 7.714E-02	-7.659E-02	-3.714E-01	-1.606E-01	-5.591E-02	 2.563E+03	 3.411E+03	 2.338E+03	 2.882E+03	-1.012E+03	-8.625E+02	 2.569E+03	 3.409E+03	 2.336E+03	 2.877E+03	-1.018E+03	-8.668E+02	-5.496E+02	 2.893E+04	 7.154E+02	-3.668E+02	 1.184E+03	 5.303E+00	 3.881E+02	 7.737E+00	 5.158E+02	 1.060E-01	 5.036E+01	 5.971E+02	 3.072E+02	 5.303E+00	 1.108E+01
   1.638	 4.531E+00	-3.469E+00	 0.000E+00	 1.409E+00	 1.594E+00	 1.176E+00	-4.538E-01	 8.295E-02	-8.510E-02	-3.617E-01	-1.634E-01	-5.318E-02	 2.599E+03	 3.423E+03	 2.383E+03	 2.862E+03	-1.056E+03	-8.188E+02	 2.604E+03	 3.421E+03	 2.382E+03	 2.857E+03	-1.062E+03	-8.232E+02	-4.975E+02	 2.892E+04	 7.036E+02	-3.561E+02	 1.152E+03	 5.306E+00	 3.867E+02	 7.697E+00	 5.165E+02	 1.060E-01	 5.075E+01	 5.848E+02	 3.088E+02	 5.306E+00	 1.085E+01
   1.656	 4.531E+00	-3.469E+00	 0.000E+00	 1.437E+00	 1.603E+00	 1.209E+00	-4.496E-01	 8.711E-02	-9.289E-02	-3.467E-01	-1.668E-01	-4.915E-02	 2.655E+03	 3.439E+03	 2.453E+03	 2.828E+03	-1.094E+03	-7.851E+02	 2.660E+03	 3.437E+03	 2.452E+03	 2.823E+03	-1.101E+03	-7.896E+02	-3.790E+02	 2.889E+04	 6.774E+02	-3.406E+02	 1.100E+03	 5.309E+00	 3.852E+02	 7.658E+00	 5.175E+02	 1.060E-01	 5.135E+01	 5.615E+02	 3.114E+02	 5.309E+00	 1.041E+01
   1.672	 4.531E+00	-3.469E+00	 0.000E+00	 1.459E+00	 1.610E+00	 1.236E+00	-4.454E-01	 8.526E-02	-9.347E-02	-3.344E-01	-1.662E-01	-4.602E-02	 2.701E+03	 3.447E+03	 2.513E+03	 2.796E+03	-1.093E+03	-7.942E+02	 2.707E+03	 3.445E+03	 2.512E+03	 2.791E+03	-1.100E+03	-7.989E+02	-2.354E+02	 2.884E+04	 6.474E+02	-3.276E+02	 1.050E+03	 5.312E+00	 3.838E+02	 7.619E+00	 5.182E+02	 1.060E-01	 5.185E+01	 5.374E+02	 3.135E+02	 5.312E+00	 9.959E+00
   1.688	 4.531E+00	-3.469E+00	 0.000E+00	 1.481E+00	 1.615E+00	 1.263E+00	-4.410E-01	 8.023E-02	-9.044E-02	-3.226E-01	-1.642E-01	-4.337E-02	 2.748E+03	 3.454E+03	 2.573E+03	 2.763E+03	-1.072E+03	-8.253E+02	 2.753E+03	 3.452E+03	 2.571E+03	 2.758E+03	-1.078E+03	-8.301E+02	-6.825E+01	 2.878E+04	 6.136E+02	-3.152E+02	 1.001E+03	 5.316E+00	 3.808E+02	 7.543E+00	 5.188E+02	 1.060E-01	 5.235E+01	 5.117E+02	 3.156E+02	 5.316E+00	 9.476E+00
   1.700	 4.531E+00	-3.469E+00	 0.000E+00	 1.497E+00	 1.619E+00	 1.285E+00	-4.372E-01	 7.322E-02	-8.457E-02	-3.137E-01	-1.602E-01	-4.171E-02	 2.784E+03	 3.458E+03	 2.620E+03	 2.736E+03	-1.036E+03	-8.710E+02	 2.789E+03	 3.456E+03	 2.618E+03	 2.731E+03	-1.042E+03	-8.759E+02	 8.596E+01	 2.871E+04	 5.832E+02	-3.058E+02	 9.593E+02	 5.318E+00	 3.793E+02	 7.506E+00	 5.192E+02	 1.060E-01	 5.275E+01	 4.898E+02	 3.173E+02	 5.318E+00	 9.067E+00
   1.719	 4.531E+00	-3.469E+00	 0.000E+00	 1.521E+00	 1.624E+00	 1.317E+00	-4.313E-01	 5.853E-02	-7.091E-02	-3.019E-01	-1.500E-01	-3.988E-02	 2.836E+03	 3.456E+03	 2.690E+03	 2.696E+03	-9.550E+02	-9.684E+02	 2.841E+03	 3.454E+03	 2.688E+03	 2.690E+03	-9.614E+02	-9.734E+02	 3.403E+02	 2.859E+04	 5.326E+02	-2.923E+02	 8.922E+02	 5.322E+00	 3.777E+02	 7.469E+00	 5.197E+02	 1.060E-01	 5.334E+01	 4.564E+02	 3.194E+02	 5.322E+00	 8.443E+00
   1.734	 4.531E+00	-3.469E+00	 0.000E+00	 1.539E+00	 1.628E+00	 1.343E+00	-4.263E-01	 4.169E-02	-5.413E-02	-2.936E-01	-1.384E-01	-3.936E-02	 2.876E+03	 3.452E+03	 2.745E+03	 2.664E+03	-8.577E+02	-1.081E+03	 2.881E+03	 3.450E+03	 2.743E+03	 2.659E+03	-8.641E+02	-1.086E+03	 5.697E+02	 2.846E+04	 4.842E+02	-2.827E+02	 8.362E+02	 5.324E+00	 3.761E+02	 7.433E+00	 5.198E+02	 1.060E-01	 5.384E+01	 4.289E+02	 3.210E+02	 5.324E+00	 7.931E+00
   1.750	 4.531E+00	-3.469E+00	 0.000E+00	 1.557E+00	 1.631E+00	 1.368E+00	-4.215E-01	 2.232E-02	-3.437E-02	-2.863E-01	-1.249E-01	-3.933E-02	 2.913E+03	 3.444E+03	 2.798E+03	 2.634E+03	-7.437E+02	-1.211E+03	 2.918E+03	 3.442E+03	 2.796E+03	 2.629E+03	-7.501E+02	-1.216E+03	 8.016E+02	 2.832E+04	 4.308E+02	-2.742E+02	 7.790E+02	 5.327E+00	 3.728E+02	 7.362E+00	 5.199E+02	 1.060E-01	 5.434E+01	 4.026E+02	 3.225E+02	 5.327E+00	 7.440E+00
   1.763	 4.531E+00	-3.469E+00	 0.000E+00	 1.570E+00	 1.633E+00	 1.387E+00	-4.178E-01	 4.491E-03	-1.586E-02	-2.816E-01	-1.122E-01	-3.978E-02	 2.940E+03	 3.434E+03	 2.839E+03	 2.613E+03	-6.376E+02	-1.330E+03	 2.945E+03	 3.433E+03	 2.837E+03	 2.607E+03	-6.440E+02	-1.336E+03	 9.867E+02	 2.819E+04	 3.833E+02	-2.692E+02	 7.315E+02	 5.328E+00	 3.711E+02	 7.328E+00	 5.199E+02	 1.060E-01	 5.474E+01	 3.827E+02	 3.234E+02	 5.328E+00	 7.071E+00
   1.781	 4.531E+00	-3.469E+00	 0.000E+00	 1.588E+00	 1.636E+00	 1.414E+00	-4.128E-01	-2.529E-02	 1.537E-02	-2.752E-01	-9.139E-02	-4.087E-02	 2.977E+03	 3.417E+03	 2.899E+03	 2.585E+03	-4.589E+02	-1.530E+03	 2.982E+03	 3.416E+03	 2.896E+03	 2.579E+03	-4.652E+02	-1.535E+03	 1.255E+03	 2.799E+04	 3.043E+02	-2.638E+02	 6.599E+02	 5.330E+00	 3.694E+02	 7.295E+00	 5.197E+02	 1.060E-01	 5.534E+01	 3.553E+02	 3.246E+02	 5.330E+00	 6.563E+00
   1.797	 4.531E+00	-3.469E+00	 0.000E+00	 1.601E+00	 1.639E+00	 1.435E+00	-4.093E-01	-5.321E-02	 4.478E-02	-2.714E-01	-7.143E-02	-4.221E-02	 3.001E+03	 3.398E+03	 2.946E+03	 2.567E+03	-2.909E+02	-1.715E+03	 3.006E+03	 3.398E+03	 2.942E+03	 2.562E+03	-2.972E+02	-1.720E+03	 1.460E+03	 2.780E+04	 2.299E+02	-2.635E+02	 5.989E+02	 5.331E+00	 3.677E+02	 7.262E+00	 5.195E+02	 1.060E-01	 5.584E+01	 3.358E+02	 3.252E+02	 5.331E+00	 6.202E+00
   1.812	 4.531E+00	-3.469E+00	 0.000E+00	 1.614E+00	 1.641E+00	 1.454E+00	-4.066E-01	-8.262E-02	 7.570E-02	-2.671E-01	-5.031E-02	-4.338E-02	 3.024E+03	 3.379E+03	 2.992E+03	 2.554E+03	-1.140E+02	-1.909E+03	 3.029E+03	 3.378E+03	 2.988E+03	 2.548E+03	-1.202E+02	-1.915E+03	 1.649E+03	 2.761E+04	 1.510E+02	-2.651E+02	 5.379E+02	 5.331E+00	 3.642E+02	 7.200E+00	 5.192E+02	 1.060E-01	 5.634E+01	 3.188E+02	 3.258E+02	 5.331E+00	 5.887E+00
   1.825	 4.531E+00	-3.469E+00	 0.000E+00	 1.623E+00	 1.642E+00	 1.468E+00	-4.051E-01	-1.074E-01	 1.017E-01	-2.636E-01	-3.186E-02	-4.414E-02	 3.039E+03	 3.362E+03	 3.028E+03	 2.547E+03	 3.481E+01	-2.072E+03	 3.044E+03	 3.362E+03	 3.024E+03	 2.542E+03	 2.859E+01	-2.077E+03	 1.783E+03	 2.745E+04	 8.418E+01	-2.687E+02	 4.888E+02	 5.331E+00	 3.625E+02	 7.170E+00	 5.188E+02	 1.060E-01	 5.674E+01	 3.075E+02	 3.263E+02	 5.331E+00	 5.679E+00
   1.844	 4.531E+00	-3.469E+00	 0.000E+00	 1.635E+00	 1.644E+00	 1.487E+00	-4.041E-01	-1.460E-01	 1.417E-01	-2.594E-01	-2.213E-03	-4.527E-02	 3.055E+03	 3.335E+03	 3.078E+03	 2.545E+03	 2.643E+02	-2.322E+03	 3.060E+03	 3.335E+03	 3.074E+03	 2.539E+03	 2.581E+02	-2.327E+03	 1.958E+03	 2.721E+04	-2.003E+01	-2.790E+02	 4.170E+02	 5.331E+00	 3.608E+02	 7.140E+00	 5.183E+02	 1.060E-01	 5.734E+01	 2.945E+02	 3.264E+02	 5.331E+00	 5.439E+00
   1.859	 4.531E+00	-3.469E+00	 0.000E+00	 1.643E+00	 1.646E+00	 1.500E+00	-4.047E-01	-1.790E-01	 1.757E-01	-2.546E-01	 2.433E-02	-4.542E-02	 3.065E+03	 3.312E+03	 3.119E+03	 2.551E+03	 4.596E+02	-2.534E+03	 3.070E+03	 3.313E+03	 3.115E+03	 2.545E+03	 4.535E+02	-2.540E+03	 2.073E+03	 2.702E+04	-1.098E+02	-2.911E+02	 3.586E+02	 5.330E+00	 3.591E+02	 7.112E+00	 5.178E+02	 1.060E-01	 5.784E+01	 2.884E+02	 3.266E+02	 5.330E+00	 5.327E+00
   1.875	 4.531E+00	-3.469E+00	 0.000E+00	 1.651E+00	 1.648E+00	 1.511E+00	-4.063E-01	-2.121E-01	 2.095E-01	-2.494E-01	 5.142E-02	-4.508E-02	 3.072E+03	 3.290E+03	 3.159E+03	 2.562E+03	 6.538E+02	-2.744E+03	 3.077E+03	 3.292E+03	 3.153E+03	 2.557E+03	 6.478E+02	-2.750E+03	 2.171E+03	 2.682E+04	-2.000E+02	-3.056E+02	 3.023E+02	 5.330E+00	 3.558E+02	 7.057E+00	 5.173E+02	 1.060E-01	 5.834E+01	 2.855E+02	 3.266E+02	 5.330E+00	 5.274E+00
   1.888	 4.531E+00	-3.469E+00	 0.000E+00	 1.656E+00	 1.649E+00	 1.518E+00	-4.086E-01	-2.384E-01	 2.360E-01	-2.456E-01	 7.296E-02	-4.466E-02	 3.074E+03	 3.274E+03	 3.187E+03	 2.577E+03	 8.066E+02	-2.910E+03	 3.079E+03	 3.275E+03	 3.181E+03	 2.571E+03	 8.006E+02	-2.916E+03	 2.235E+03	 2.667E+04	-2.722E+02	-3.202E+02	 2.618E+02	 5.330E+00	 3.542E+02	 7.030E+00	 5.169E+02	 1.060E-01	 5.874E+01	 2.864E+02	 3.264E+02	 5.330E+00	 5.289E+00
   1.906	 4.531E+00	-3.469E+00	 0.000E+00	 1.661E+00	 1.650E+00	 1.527E+00	-4.134E-01	-2.769E-01	 2.747E-01	-2.384E-01	 1.046E-01	-4.315E-02	 3.074E+03	 3.251E+03	 3.226E+03	 2.607E+03	 1.029E+03	-3.151E+03	 3.079E+03	 3.253E+03	 3.221E+03	 2.601E+03	 1.023E+03	-3.156E+03	 2.314E+03	 2.644E+04	-3.793E+02	-3.436E+02	 2.049E+02	 5.330E+00	 3.526E+02	 7.005E+00	 5.163E+02	 1.060E-01	 5.934E+01	 2.924E+02	 3.262E+02	 5.330E+00	 5.400E+00
   1.922	 4.531E+00	-3.469E+00	 0.000E+00	 1.665E+00	 1.652E+00	 1.531E+00	-4.189E-01	-3.072E-01	 3.048E-01	-2.329E-01	 1.284E-01	-4.166E-02	 3.069E+03	 3.236E+03	 3.252E+03	 2.641E+03	 1.202E+03	-3.338E+03	 3.074E+03	 3.238E+03	 3.246E+03	 2.635E+03	 1.196E+03	-3.344E+03	 2.365E+03	 2.625E+04	-4.651E+02	-3.665E+02	 1.682E+02	 5.332E+00	 3.511E+02	 6.980E+00	 5.159E+02	 1.060E-01	 5.984E+01	 3.030E+02	 3.257E+02	 5.332E+00	 5.595E+00
   1.938	 4.531E+00	-3.469E+00	 0.000E+00	 1.667E+00	 1.653E+00	 1.534E+00	-4.253E-01	-3.358E-01	 3.333E-01	-2.263E-01	 1.506E-01	-3.963E-02	 3.063E+03	 3.222E+03	 3.275E+03	 2.680E+03	 1.365E+03	-3.515E+03	 3.068E+03	 3.225E+03	 3.269E+03	 2.675E+03	 1.359E+03	-3.521E+03	 2.411E+03	 2.607E+04	-5.471E+02	-3.891E+02	 1.361E+02	 5.333E+00	 3.483E+02	 6.933E+00	 5.156E+02	 1.060E-01	 6.034E+01	 3.171E+02	 3.253E+02	 5.333E+00	 5.853E+00
   1.950	 4.531E+00	-3.469E+00	 0.000E+00	 1.668E+00	 1.654E+00	 1.535E+00	-4.312E-01	-3.569E-01	 3.542E-01	-2.210E-01	 1.664E-01	-3.783E-02	 3.057E+03	 3.214E+03	 3.290E+03	 2.717E+03	 1.484E+03	-3.645E+03	 3.062E+03	 3.216E+03	 3.283E+03	 2.711E+03	 1.478E+03	-3.651E+03	 2.445E+03	 2.592E+04	-6.083E+02	-4.075E+02	 1.164E+02	 5.335E+00	 3.470E+02	 6.910E+00	 5.154E+02	 1.060E-01	 6.074E+01	 3.314E+02	 3.249E+02	 5.335E+00	 6.115E+00
   1.969	 4.531E+00	-3.469E+00	 0.000E+00	 1.668E+00	 1.655E+00	 1.534E+00	-4.411E-01	-3.853E-01	 3.826E-01	-2.147E-01	 1.863E-01	-3.557E-02	 3.042E+03	 3.205E+03	 3.301E+03	 2.778E+03	 1.642E+03	-3.819E+03	 3.047E+03	 3.208E+03	 3.294E+03	 2.772E+03	 1.636E+03	-3.825E+03	 2.495E+03	 2.569E+04	-6.915E+02	-4.362E+02	 1.014E+02	 5.338E+00	 3.457E+02	 6.888E+00	 5.152E+02	 1.060E-01	 6.134E+01	 3.569E+02	 3.240E+02	 5.338E+00	 6.582E+00
   1.984	 4.531E+00	-3.469E+00	 0.000E+00	 1.667E+00	 1.657E+00	 1.532E+00	-4.503E-01	-4.046E-01	 4.024E-01	-2.092E-01	 1.995E-01	-3.354E-02	 3.027E+03	 3.202E+03	 3.303E+03	 2.836E+03	 1.748E+03	-3.939E+03	 3.032E+03	 3.205E+03	 3.296E+03	 2.830E+03	 1.742E+03	-3.945E+03	 2.536E+03	 2.550E+04	-7.484E+02	-4.580E+02	 9.953E+01	 5.342E+00	 3.446E+02	 6.867E+00	 5.152E+02	 1.060E-01	 6.184E+01	 3.822E+02	 3.231E+02	 5.342E+00	 7.043E+00
   2.000	 4.531E+00	-3.469E+00	 0.000E+00	 1.665E+00	 1.658E+00	 1.528E+00	-4.599E-01	-4.208E-01	 4.193E-01	-2.043E-01	 2.104E-01	-3.171E-02	 3.011E+03	 3.201E+03	 3.299E+03	 2.897E+03	 1.835E+03	-4.041E+03	 3.017E+03	 3.204E+03	 3.291E+03	 2.891E+03	 1.829E+03	-4.047E+03	 2.578E+03	 2.530E+04	-7.962E+02	-4.784E+02	 1.058E+02	 5.346E+00	 3.425E+02	 6.827E+00	 5.153E+02	 1.060E-01	 6.234E+01	 4.089E+02	 3.221E+02	 5.346E+00	 7.530E+00
   2.013	 4.531E+00	-3.469E+00	 0.000E+00	 1.662E+00	 1.659E+00	 1.523E+00	-4.680E-01	-4.307E-01	 4.302E-01	-2.014E-01	 2.166E-01	-3.068E-02	 2.996E+03	 3.203E+03	 3.288E+03	 2.948E+03	 1.885E+03	-4.105E+03	 3.002E+03	 3.206E+03	 3.280E+03	 2.943E+03	 1.879E+03	-4.111E+03	 2.610E+03	 2.514E+04	-8.256E+02	-4.937E+02	 1.205E+02	 5.349E+00	 3.417E+02	 6.808E+00	 5.155E+02	 1.060E-01	 6.274E+01	 4.314E+02	 3.211E+02	 5.349E+00	 7.939E+00
   2.031	 4.531E+00	-3.469E+00	 0.000E+00	 1.658E+00	 1.660E+00	 1.515E+00	-4.805E-01	-4.407E-01	 4.424E-01	-1.970E-01	 2.233E-01	-2.918E-02	 2.974E+03	 3.208E+03	 3.266E+03	 3.029E+03	 1.932E+03	-4.175E+03	 2.979E+03	 3.212E+03	 3.259E+03	 3.023E+03	 1.926E+03	-4.181E+03	 2.655E+03	 2.489E+04	-8.562E+02	-5.128E+02	 1.502E+02	 5.354E+00	 3.409E+02	 6.790E+00	 5.160E+02	 1.060E-01	 6.334E+01	 4.654E+02	 3.196E+02	 5.354E+00	 8.557E+00
   2.044	 4.531E+00	-3.469E+00	 0.000E+00	 1.654E+00	 1.661E+00	 1.509E+00	-4.890E-01	-4.436E-01	 4.473E-01	-1.950E-01	 2.249E-01	-2.863E-02	 2.957E+03	 3.214E+03	 3.245E+03	 3.083E+03	 1.940E+03	-4.200E+03	 2.963E+03	 3.217E+03	 3.237E+03	 3.078E+03	 1.934E+03	-4.206E+03	 2.680E+03	 2.471E+04	-8.665E+02	-5.234E+02	 1.790E+02	 5.358E+00	 3.402E+02	 6.772E+00	 5.164E+02	 1.060E-01	 6.375E+01	 4.875E+02	 3.184E+02	 5.358E+00	 8.957E+00
   2.056	 4.531E+00	-3.469E+00	 0.000E+00	 1.649E+00	 1.661E+00	 1.502E+00	-4.975E-01	-4.435E-01	 4.496E-01	-1.925E-01	 2.252E-01	-2.795E-02	 2.941E+03	 3.220E+03	 3.222E+03	 3.138E+03	 1.930E+03	-4.210E+03	 2.947E+03	 3.224E+03	 3.214E+03	 3.133E+03	 1.924E+03	-4.216E+03	 2.700E+03	 2.452E+04	-8.693E+02	-5.311E+02	 2.097E+02	 5.362E+00	 3.396E+02	 6.755E+00	 5.169E+02	 1.060E-01	 6.415E+01	 5.084E+02	 3.173E+02	 5.362E+00	 9.335E+00
   2.072	 4.531E+00	-3.469E+00	 0.000E+00	 1.643E+00	 1.662E+00	 1.491E+00	-5.080E-01	-4.385E-01	 4.483E-01	-1.905E-01	 2.221E-01	-2.764E-02	 2.920E+03	 3.231E+03	 3.185E+03	 3.207E+03	 1.887E+03	-4.196E+03	 2.926E+03	 3.234E+03	 3.177E+03	 3.201E+03	 1.881E+03	-4.202E+03	 2.711E+03	 2.428E+04	-8.613E+02	-5.379E+02	 2.577E+02	 5.366E+00	 3.391E+02	 6.739E+00	 5.177E+02	 1.060E-01	 6.465E+01	 5.319E+02	 3.157E+02	 5.366E+00	 9.757E+00
   2.084	 4.531E+00	-3.469E+00	 0.000E+00	 1.638E+00	 1.663E+00	 1.483E+00	-5.163E-01	-4.317E-01	 4.450E-01	-1.882E-01	 2.185E-01	-2.720E-02	 2.903E+03	 3.239E+03	 3.155E+03	 3.260E+03	 1.835E+03	-4.169E+03	 2.909E+03	 3.242E+03	 3.147E+03	 3.255E+03	 1.829E+03	-4.175E+03	 2.711E+03	 2.409E+04	-8.486E+02	-5.406E+02	 2.965E+02	 5.370E+00	 3.387E+02	 6.724E+00	 5.184E+02	 1.060E-01	 6.505E+01	 5.485E+02	 3.144E+02	 5.370E+00	 1.005E+01
   2.100	 4.531E+00	-3.469E+00	 0.000E+00	 1.630E+00	 1.663E+00	 1.471E+00	-5.262E-01	-4.192E-01	 4.374E-01	-1.855E-01	 2.120E-01	-2.678E-02	 2.883E+03	 3.250E+03	 3.114E+03	 3.325E+03	 1.746E+03	-4.116E+03	 2.889E+03	 3.253E+03	 3.107E+03	 3.320E+03	 1.740E+03	-4.122E+03	 2.696E+03	 2.384E+04	-8.242E+02	-5.412E+02	 3.487E+02	 5.376E+00	 3.382E+02	 6.695E+00	 5.194E+02	 1.060E-01	 6.556E+01	 5.659E+02	 3.127E+02	 5.376E+00	 1.036E+01
   2.113	 4.531E+00	-3.469E+00	 0.000E+00	 1.624E+00	 1.663E+00	 1.462E+00	-5.338E-01	-4.058E-01	 4.285E-01	-1.835E-01	 2.049E-01	-2.659E-02	 2.867E+03	 3.260E+03	 3.079E+03	 3.375E+03	 1.653E+03	-4.055E+03	 2.874E+03	 3.263E+03	 3.071E+03	 3.370E+03	 1.646E+03	-4.060E+03	 2.670E+03	 2.363E+04	-7.973E+02	-5.394E+02	 3.941E+02	 5.380E+00	 3.380E+02	 6.682E+00	 5.203E+02	 1.060E-01	 6.596E+01	 5.765E+02	 3.113E+02	 5.380E+00	 1.055E+01
   2.131	 4.531E+00	-3.469E+00	 0.000E+00	 1.614E+00	 1.663E+00	 1.446E+00	-5.444E-01	-3.807E-01	 4.110E-01	-1.797E-01	 1.927E-01	-2.604E-02	 2.845E+03	 3.275E+03	 3.025E+03	 3.445E+03	 1.483E+03	-3.937E+03	 2.851E+03	 3.277E+03	 3.018E+03	 3.440E+03	 1.476E+03	-3.942E+03	 2.611E+03	 2.331E+04	-7.469E+02	-5.329E+02	 4.621E+02	 5.386E+00	 3.379E+02	 6.669E+00	 5.216E+02	 1.060E-01	 6.657E+01	 5.871E+02	 3.093E+02	 5.386E+00	 1.073E+01
   2.144	 4.531E+00	-3.469E+00	 0.000E+00	 1.607E+00	 1.662E+00	 1.436E+00	-5.508E-01	-3.604E-01	 3.964E-01	-1.769E-01	 1.832E-01	-2.565E-02	 2.830E+03	 3.285E+03	 2.988E+03	 3.488E+03	 1.347E+03	-3.840E+03	 2.836E+03	 3.287E+03	 2.981E+03	 3.483E+03	 1.341E+03	-3.845E+03	 2.557E+03	 2.308E+04	-7.061E+02	-5.263E+02	 5.088E+02	 5.391E+00	 3.379E+02	 6.658E+00	 5.225E+02	 1.060E-01	 6.697E+01	 5.901E+02	 3.079E+02	 5.391E+00	 1.078E+01
   2.159	 4.531E+00	-3.469E+00	 0.000E+00	 1.598E+00	 1.661E+00	 1.422E+00	-5.579E-01	-3.309E-01	 3.749E-01	-1.725E-01	 1.701E-01	-2.489E-02	 2.813E+03	 3.297E+03	 2.943E+03	 3.537E+03	 1.154E+03	-3.697E+03	 2.819E+03	 3.299E+03	 2.936E+03	 3.532E+03	 1.148E+03	-3.702E+03	 2.472E+03	 2.280E+04	-6.477E+02	-5.155E+02	 5.655E+02	 5.397E+00	 3.379E+02	 6.647E+00	 5.237E+02	 1.060E-01	 6.748E+01	 5.888E+02	 3.062E+02	 5.397E+00	 1.074E+01
   2.172	 4.531E+00	-3.469E+00	 0.000E+00	 1.591E+00	 1.660E+00	 1.411E+00	-5.628E-01	-3.052E-01	 3.560E-01	-1.687E-01	 1.587E-01	-2.424E-02	 2.799E+03	 3.307E+03	 2.907E+03	 3.572E+03	 9.870E+02	-3.571E+03	 2.806E+03	 3.309E+03	 2.900E+03	 3.567E+03	 9.808E+02	-3.577E+03	 2.397E+03	 2.257E+04	-5.973E+02	-5.057E+02	 6.108E+02	 5.402E+00	 3.380E+02	 6.637E+00	 5.246E+02	 1.060E-01	 6.788E+01	 5.851E+02	 3.048E+02	 5.402E+00	 1.066E+01
   2.184	 4.531E+00	-3.469E+00	 0.000E+00	 1.584E+00	 1.658E+00	 1.400E+00	-5.671E-01	-2.774E-01	 3.354E-01	-1.645E-01	 1.464E-01	-2.347E-02	 2.786E+03	 3.316E+03	 2.871E+03	 3.603E+03	 8.075E+02	-3.434E+03	 2.793E+03	 3.318E+03	 2.865E+03	 3.598E+03	 8.014E+02	-3.440E+03	 2.315E+03	 2.233E+04	-5.437E+02	-4.949E+02	 6.549E+02	 5.407E+00	 3.381E+02	 6.628E+00	 5.255E+02	 1.060E-01	 6.829E+01	 5.786E+02	 3.034E+02	 5.407E+00	 1.054E+01
   2.200	 4.531E+00	-3.469E+00	 0.000E+00	 1.575E+00	 1.656E+00	 1.386E+00	-5.715E-01	-2.403E-01	 3.077E-01	-1.590E-01	 1.297E-01	-2.245E-02	 2.771E+03	 3.328E+03	 2.827E+03	 3.637E+03	 5.696E+02	-3.250E+03	 2.777E+03	 3.329E+03	 2.821E+03	 3.632E+03	 5.634E+02	-3.256E+03	 2.208E+03	 2.203E+04	-4.734E+02	-4.803E+02	 7.090E+02	 5.413E+00	 3.385E+02	 6.612E+00	 5.265E+02	 1.060E-01	 6.879E+01	 5.673E+02	 3.017E+02	 5.413E+00	 1.032E+01
   2.219	 4.531E+00	-3.469E+00	 0.000E+00	 1.564E+00	 1.651E+00	 1.370E+00	-5.752E-01	-1.925E-01	 2.717E-01	-1.513E-01	 1.076E-01	-2.100E-02	 2.753E+03	 3.342E+03	 2.777E+03	 3.670E+03	 2.668E+02	-3.012E+03	 2.760E+03	 3.342E+03	 2.771E+03	 3.665E+03	 2.606E+02	-3.017E+03	 2.077E+03	 2.166E+04	-3.853E+02	-4.610E+02	 7.708E+02	 5.420E+00	 3.387E+02	 6.605E+00	 5.277E+02	 1.060E-01	 6.940E+01	 5.490E+02	 2.998E+02	 5.420E+00	 9.972E+00
   2.231	 4.531E+00	-3.469E+00	 0.000E+00	 1.557E+00	 1.648E+00	 1.360E+00	-5.766E-01	-1.590E-01	 2.464E-01	-1.461E-01	 9.128E-02	-2.008E-02	 2.742E+03	 3.351E+03	 2.744E+03	 3.686E+03	 5.607E+01	-2.843E+03	 2.748E+03	 3.351E+03	 2.739E+03	 3.681E+03	 4.987E+01	-2.849E+03	 1.991E+03	 2.141E+04	-3.252E+02	-4.477E+02	 8.109E+02	 5.425E+00	 3.389E+02	 6.600E+00	 5.284E+02	 1.060E-01	 6.981E+01	 5.344E+02	 2.985E+02	 5.425E+00	 9.698E+00
   2.244	 4.531E+00	-3.469E+00	 0.000E+00	 1.549E+00	 1.644E+00	 1.349E+00	-5.772E-01	-1.247E-01	 2.202E-01	-1.403E-01	 7.408E-02	-1.903E-02	 2.731E+03	 3.359E+03	 2.713E+03	 3.698E+03	-1.581E+02	-2.670E+03	 2.738E+03	 3.358E+03	 2.708E+03	 3.692E+03	-1.643E+02	-2.675E+03	 1.910E+03	 2.115E+04	-2.646E+02	-4.337E+02	 8.484E+02	 5.429E+00	 3.392E+02	 6.595E+00	 5.291E+02	 1.060E-01	 7.022E+01	 5.182E+02	 2.973E+02	 5.429E+00	 9.396E+00
   2.259	 4.531E+00	-3.469E+00	 0.000E+00	 1.541E+00	 1.638E+00	 1.337E+00	-5.769E-01	-8.106E-02	 1.866E-01	-1.331E-01	 5.083E-02	-1.786E-02	 2.718E+03	 3.369E+03	 2.675E+03	 3.706E+03	-4.293E+02	-2.446E+03	 2.725E+03	 3.368E+03	 2.671E+03	 3.701E+03	-4.356E+02	-2.451E+03	 1.820E+03	 2.082E+04	-1.888E+02	-4.158E+02	 8.942E+02	 5.434E+00	 3.394E+02	 6.591E+00	 5.298E+02	 1.060E-01	 7.073E+01	 4.959E+02	 2.957E+02	 5.434E+00	 8.984E+00
   2.272	 4.531E+00	-3.469E+00	 0.000E+00	 1.534E+00	 1.633E+00	 1.328E+00	-5.759E-01	-4.614E-02	 1.594E-01	-1.269E-01	 3.201E-02	-1.682E-02	 2.709E+03	 3.376E+03	 2.647E+03	 3.708E+03	-6.452E+02	-2.266E+03	 2.716E+03	 3.374E+03	 2.642E+03	 3.703E+03	-6.514E+02	-2.271E+03	 1.756E+03	 2.055E+04	-1.285E+02	-4.010E+02	 9.277E+02	 5.438E+00	 3.397E+02	 6.588E+00	 5.303E+02	 1.060E-01	 7.113E+01	 4.773E+02	 2.945E+02	 5.438E+00	 8.641E+00
   2.288	 4.531E+00	-3.469E+00	 0.000E+00	 1.526E+00	 1.625E+00	 1.317E+00	-5.739E-01	-2.837E-03	 1.253E-01	-1.193E-01	 7.657E-03	-1.570E-02	 2.697E+03	 3.384E+03	 2.612E+03	 3.707E+03	-9.125E+02	-2.039E+03	 2.704E+03	 3.382E+03	 2.608E+03	 3.702E+03	-9.188E+02	-2.044E+03	 1.688E+03	 2.020E+04	-5.400E+01	-3.825E+02	 9.686E+02	 5.442E+00	 3.402E+02	 6.585E+00	 5.308E+02	 1.060E-01	 7.164E+01	 4.533E+02	 2.930E+02	 5.442E+00	 8.200E+00
   2.300	 4.531E+00	-3.469E+00	 0.000E+00	 1.519E+00	 1.619E+00	 1.309E+00	-5.716E-01	 3.113E-02	 9.802E-02	-1.130E-01	-1.202E-02	-1.484E-02	 2.688E+03	 3.389E+03	 2.585E+03	 3.701E+03	-1.122E+03	-1.859E+03	 2.695E+03	 3.387E+03	 2.581E+03	 3.696E+03	-1.128E+03	-1.863E+03	 1.646E+03	 1.992E+04	 4.466E+00	-3.676E+02	 9.990E+02	 5.445E+00	 3.404E+02	 6.585E+00	 5.312E+02	 1.060E-01	 7.205E+01	 4.336E+02	 2.918E+02	 5.445E+00	 7.840E+00
   2.319	 4.531E+00	-3.469E+00	 0.000E+00	 1.510E+00	 1.608E+00	 1.298E+00	-5.673E-01	 8.033E-02	 5.766E-02	-1.030E-01	-4.120E-02	-1.338E-02	 2.677E+03	 3.394E+03	 2.548E+03	 3.685E+03	-1.424E+03	-1.593E+03	 2.684E+03	 3.392E+03	 2.545E+03	 3.680E+03	-1.430E+03	-1.598E+03	 1.599E+03	 1.949E+04	 8.949E+01	-3.437E+02	 1.038E+03	 5.449E+00	 3.406E+02	 6.585E+00	 5.315E+02	 1.060E-01	 7.266E+01	 4.041E+02	 2.901E+02	 5.449E+00	 7.302E+00
   2.331	 4.531E+00	-3.469E+00	 0.000E+00	 1.504E+00	 1.601E+00	 1.292E+00	-5.638E-01	 1.113E-01	 3.146E-02	-9.646E-02	-6.049E-02	-1.258E-02	 2.669E+03	 3.396E+03	 2.524E+03	 3.671E+03	-1.615E+03	-1.421E+03	 2.676E+03	 3.393E+03	 2.522E+03	 3.666E+03	-1.621E+03	-1.425E+03	 1.581E+03	 1.920E+04	 1.434E+02	-3.281E+02	 1.062E+03	 5.451E+00	 3.409E+02	 6.586E+00	 5.316E+02	 1.060E-01	 7.307E+01	 3.850E+02	 2.889E+02	 5.451E+00	 6.953E+00
   2.347	 4.531E+00	-3.469E+00	 0.000E+00	 1.497E+00	 1.591E+00	 1.285E+00	-5.589E-01	 1.472E-01	 2.589E-05	-8.781E-02	-8.376E-02	-1.134E-02	 2.661E+03	 3.395E+03	 2.498E+03	 3.648E+03	-1.835E+03	-1.216E+03	 2.668E+03	 3.392E+03	 2.495E+03	 3.643E+03	-1.841E+03	-1.221E+03	 1.570E+03	 1.883E+04	 2.063E+02	-3.067E+02	 1.085E+03	 5.453E+00	 3.411E+02	 6.588E+00	 5.316E+02	 1.060E-01	 7.358E+01	 3.623E+02	 2.875E+02	 5.453E+00	 6.541E+00
   2.359	 4.531E+00	-3.469E+00	 0.000E+00	 1.492E+00	 1.582E+00	 1.280E+00	-5.547E-01	 1.739E-01	-2.409E-02	-8.107E-02	-1.018E-01	-1.049E-02	 2.655E+03	 3.393E+03	 2.477E+03	 3.628E+03	-2.000E+03	-1.059E+03	 2.662E+03	 3.389E+03	 2.475E+03	 3.623E+03	-2.006E+03	-1.064E+03	 1.566E+03	 1.852E+04	 2.535E+02	-2.900E+02	 1.102E+03	 5.454E+00	 3.413E+02	 6.591E+00	 5.316E+02	 1.060E-01	 7.399E+01	 3.453E+02	 2.862E+02	 5.454E+00	 6.233E+00
   2.372	 4.531E+00	-3.469E+00	 0.000E+00	 1.487E+00	 1.573E+00	 1.276E+00	-5.503E-01	 1.983E-01	-4.697E-02	-7.405E-02	-1.188E-01	-9.474E-03	 2.650E+03	 3.387E+03	 2.458E+03	 3.605E+03	-2.150E+03	-9.117E+02	 2.657E+03	 3.383E+03	 2.456E+03	 3.600E+03	-2.157E+03	-9.162E+02	 1.568E+03	 1.822E+04	 2.972E+02	-2.721E+02	 1.113E+03	 5.455E+00	 3.415E+02	 6.595E+00	 5.315E+02	 1.060E-01	 7.440E+01	 3.298E+02	 2.850E+02	 5.455E+00	 5.952E+00
   2.388	 4.531E+00	-3.469E+00	 0.000E+00	 1.481E+00	 1.562E+00	 1.271E+00	-5.445E-01	 2.256E-01	-7.370E-02	-6.542E-02	-1.384E-01	-8.291E-03	 2.644E+03	 3.378E+03	 2.436E+03	 3.574E+03	-2.319E+03	-7.398E+02	 2.651E+03	 3.374E+03	 2.434E+03	 3.569E+03	-2.326E+03	-7.444E+02	 1.572E+03	 1.784E+04	 3.470E+02	-2.499E+02	 1.125E+03	 5.456E+00	 3.418E+02	 6.604E+00	 5.313E+02	 1.060E-01	 7.491E+01	 3.127E+02	 2.834E+02	 5.456E+00	 5.643E+00
   2.400	 4.531E+00	-3.469E+00	 0.000E+00	 1.477E+00	 1.553E+00	 1.268E+00	-5.397E-01	 2.442E-01	-9.317E-02	-5.845E-02	-1.523E-01	-7.303E-03	 2.640E+03	 3.368E+03	 2.420E+03	 3.548E+03	-2.435E+03	-6.153E+02	 2.647E+03	 3.364E+03	 2.418E+03	 3.543E+03	-2.442E+03	-6.198E+02	 1.577E+03	 1.753E+04	 3.820E+02	-2.319E+02	 1.130E+03	 5.457E+00	 3.420E+02	 6.610E+00	 5.310E+02	 1.060E-01	 7.532E+01	 3.016E+02	 2.821E+02	 5.457E+00	 5.440E+00
   2.419	 4.531E+00	-3.469E+00	 0.000E+00	 1.470E+00	 1.539E+00	 1.265E+00	-5.323E-01	 2.671E-01	-1.192E-01	-4.751E-02	-1.695E-01	-5.497E-03	 2.635E+03	 3.348E+03	 2.400E+03	 3.506E+03	-2.579E+03	-4.500E+02	 2.642E+03	 3.343E+03	 2.399E+03	 3.501E+03	-2.585E+03	-4.545E+02	 1.582E+03	 1.706E+04	 4.271E+02	-2.040E+02	 1.127E+03	 5.458E+00	 3.422E+02	 6.616E+00	 5.306E+02	 1.060E-01	 7.594E+01	 2.890E+02	 2.800E+02	 5.458E+00	 5.212E+00
   2.431	 4.531E+00	-3.469E+00	 0.000E+00	 1.467E+00	 1.530E+00	 1.264E+00	-5.273E-01	 2.784E-01	-1.338E-01	-4.033E-02	-1.782E-01	-4.348E-03	 2.632E+03	 3.331E+03	 2.388E+03	 3.477E+03	-2.651E+03	-3.569E+02	 2.639E+03	 3.326E+03	 2.387E+03	 3.472E+03	-2.657E+03	-3.613E+02	 1.581E+03	 1.674E+04	 4.510E+02	-1.860E+02	 1.122E+03	 5.459E+00	 3.424E+02	 6.623E+00	 5.303E+02	 1.060E-01	 7.635E+01	 2.841E+02	 2.785E+02	 5.459E+00	 5.123E+00
   2.447	 4.531E+00	-3.469E+00	 0.000E+00	 1.462E+00	 1.518E+00	 1.264E+00	-5.211E-01	 2.875E-01	-1.486E-01	-3.083E-02	-1.851E-01	-2.620E-03	 2.629E+03	 3.306E+03	 2.378E+03	 3.441E+03	-2.710E+03	-2.632E+02	 2.636E+03	 3.301E+03	 2.377E+03	 3.436E+03	-2.716E+03	-2.676E+02	 1.573E+03	 1.635E+04	 4.727E+02	-1.640E+02	 1.106E+03	 5.460E+00	 3.425E+02	 6.631E+00	 5.298E+02	 1.060E-01	 7.686E+01	 2.826E+02	 2.766E+02	 5.460E+00	 5.095E+00
   2.459	 4.531E+00	-3.469E+00	 0.000E+00	 1.459E+00	 1.509E+00	 1.264E+00	-5.161E-01	 2.918E-01	-1.582E-01	-2.340E-02	-1.885E-01	-1.351E-03	 2.627E+03	 3.285E+03	 2.370E+03	 3.412E+03	-2.739E+03	-2.021E+02	 2.634E+03	 3.280E+03	 2.370E+03	 3.408E+03	-2.745E+03	-2.064E+02	 1.560E+03	 1.603E+04	 4.847E+02	-1.472E+02	 1.091E+03	 5.461E+00	 3.427E+02	 6.639E+00	 5.295E+02	 1.060E-01	 7.727E+01	 2.841E+02	 2.751E+02	 5.461E+00	 5.122E+00
   2.472	 4.531E+00	-3.469E+00	 0.000E+00	 1.456E+00	 1.500E+00	 1.264E+00	-5.113E-01	 2.931E-01	-1.654E-01	-1.555E-02	-1.894E-01	 9.082E-05	 2.626E+03	 3.261E+03	 2.366E+03	 3.384E+03	-2.749E+03	-1.558E+02	 2.632E+03	 3.256E+03	 2.366E+03	 3.379E+03	-2.755E+03	-1.602E+02	 1.542E+03	 1.570E+04	 4.909E+02	-1.315E+02	 1.071E+03	 5.462E+00	 3.429E+02	 6.647E+00	 5.292E+02	 1.060E-01	 7.768E+01	 2.886E+02	 2.736E+02	 5.462E+00	 5.202E+00
   2.488	 4.531E+00	-3.469E+00	 0.000E+00	 1.453E+00	 1.489E+00	 1.265E+00	-5.053E-01	 2.906E-01	-1.711E-01	-5.825E-03	-1.878E-01	 1.764E-03	 2.624E+03	 3.230E+03	 2.363E+03	 3.350E+03	-2.736E+03	-1.179E+02	 2.630E+03	 3.225E+03	 2.363E+03	 3.345E+03	-2.742E+03	-1.223E+02	 1.513E+03	 1.530E+04	 4.905E+02	-1.135E+02	 1.043E+03	 5.463E+00	 3.434E+02	 6.665E+00	 5.288E+02	 1.060E-01	 7.819E+01	 2.979E+02	 2.717E+02	 5.463E+00	 5.368E+00
   2.506	 4.531E+00	-3.469E+00	 0.000E+00	 1.450E+00	 1.477E+00	 1.267E+00	-4.984E-01	 2.815E-01	-1.729E-01	 6.228E-03	-1.814E-01	 3.791E-03	 2.623E+03	 3.191E+03	 2.365E+03	 3.310E+03	-2.684E+03	-1.040E+02	 2.629E+03	 3.186E+03	 2.365E+03	 3.305E+03	-2.689E+03	-1.084E+02	 1.467E+03	 1.480E+04	 4.770E+02	-9.502E+01	 1.003E+03	 5.465E+00	 3.437E+02	 6.675E+00	 5.284E+02	 1.060E-01	 7.880E+01	 3.144E+02	 2.695E+02	 5.465E+00	 5.664E+00
   2.519	 4.531E+00	-3.469E+00	 0.000E+00	 1.448E+00	 1.469E+00	 1.269E+00	-4.941E-01	 2.716E-01	-1.707E-01	 1.468E-02	-1.742E-01	 5.191E-03	 2.622E+03	 3.164E+03	 2.369E+03	 3.285E+03	-2.625E+03	-1.149E+02	 2.628E+03	 3.159E+03	 2.369E+03	 3.280E+03	-2.630E+03	-1.193E+02	 1.432E+03	 1.447E+04	 4.596E+02	-8.510E+01	 9.721E+02	 5.466E+00	 3.441E+02	 6.685E+00	 5.282E+02	 1.060E-01	 7.921E+01	 3.286E+02	 2.682E+02	 5.466E+00	 5.918E+00
   2.531	 4.531E+00	-3.469E+00	 0.000E+00	 1.447E+00	 1.461E+00	 1.270E+00	-4.899E-01	 2.589E-01	-1.661E-01	 2.303E-02	-1.653E-01	 6.413E-03	 2.622E+03	 3.137E+03	 2.375E+03	 3.262E+03	-2.549E+03	-1.415E+02	 2.628E+03	 3.133E+03	 2.375E+03	 3.257E+03	-2.555E+03	-1.459E+02	 1.395E+03	 1.414E+04	 4.360E+02	-7.690E+01	 9.401E+02	 5.468E+00	 3.444E+02	 6.695E+00	 5.280E+02	 1.060E-01	 7.962E+01	 3.447E+02	 2.668E+02	 5.468E+00	 6.206E+00
   2.547	 4.531E+00	-3.469E+00	 0.000E+00	 1.446E+00	 1.453E+00	 1.273E+00	-4.852E-01	 2.390E-01	-1.563E-01	 3.403E-02	-1.508E-01	 7.957E-03	 2.623E+03	 3.104E+03	 2.387E+03	 3.235E+03	-2.429E+03	-1.981E+02	 2.629E+03	 3.100E+03	 2.386E+03	 3.231E+03	-2.434E+03	-2.025E+02	 1.349E+03	 1.371E+04	 3.971E+02	-7.024E+01	 8.959E+02	 5.470E+00	 3.449E+02	 6.705E+00	 5.280E+02	 1.060E-01	 8.014E+01	 3.675E+02	 2.653E+02	 5.470E+00	 6.613E+00
   2.559	 4.531E+00	-3.469E+00	 0.000E+00	 1.445E+00	 1.447E+00	 1.275E+00	-4.818E-01	 2.208E-01	-1.463E-01	 4.274E-02	-1.377E-01	 9.013E-03	 2.623E+03	 3.078E+03	 2.397E+03	 3.216E+03	-2.319E+03	-2.573E+02	 2.629E+03	 3.074E+03	 2.396E+03	 3.211E+03	-2.325E+03	-2.618E+02	 1.316E+03	 1.337E+04	 3.612E+02	-6.650E+01	 8.607E+02	 5.472E+00	 3.453E+02	 6.716E+00	 5.280E+02	 1.060E-01	 8.055E+01	 3.867E+02	 2.642E+02	 5.472E+00	 6.956E+00
   2.575	 4.531E+00	-3.469E+00	 0.000E+00	 1.445E+00	 1.440E+00	 1.278E+00	-4.779E-01	 1.953E-01	-1.309E-01	 5.386E-02	-1.193E-01	 1.024E-02	 2.624E+03	 3.047E+03	 2.412E+03	 3.194E+03	-2.165E+03	-3.491E+02	 2.630E+03	 3.043E+03	 2.412E+03	 3.189E+03	-2.171E+03	-3.535E+02	 1.281E+03	 1.295E+04	 3.101E+02	-6.441E+01	 8.155E+02	 5.475E+00	 3.464E+02	 6.737E+00	 5.281E+02	 1.060E-01	 8.106E+01	 4.116E+02	 2.628E+02	 5.475E+00	 7.401E+00
   2.588	 4.531E+00	-3.469E+00	 0.000E+00	 1.445E+00	 1.435E+00	 1.280E+00	-4.753E-01	 1.726E-01	-1.161E-01	 6.301E-02	-1.027E-01	 1.116E-02	 2.625E+03	 3.024E+03	 2.427E+03	 3.179E+03	-2.028E+03	-4.374E+02	 2.631E+03	 3.020E+03	 2.426E+03	 3.174E+03	-2.034E+03	-4.419E+02	 1.261E+03	 1.260E+04	 2.641E+02	-6.553E+01	 7.787E+02	 5.477E+00	 3.471E+02	 6.749E+00	 5.283E+02	 1.060E-01	 8.147E+01	 4.319E+02	 2.619E+02	 5.477E+00	 7.763E+00
   2.606	 4.531E+00	-3.469E+00	 0.000E+00	 1.445E+00	 1.429E+00	 1.283E+00	-4.720E-01	 1.356E-01	-9.050E-02	 7.677E-02	-7.600E-02	 1.234E-02	 2.628E+03	 2.991E+03	 2.450E+03	 3.160E+03	-1.807E+03	-5.911E+02	 2.634E+03	 2.987E+03	 2.449E+03	 3.155E+03	-1.812E+03	-5.956E+02	 1.247E+03	 1.208E+04	 1.889E+02	-6.969E+01	 7.244E+02	 5.481E+00	 3.478E+02	 6.760E+00	 5.287E+02	 1.060E-01	 8.209E+01	 4.621E+02	 2.606E+02	 5.481E+00	 8.300E+00
   2.619	 4.531E+00	-3.469E+00	 0.000E+00	 1.446E+00	 1.426E+00	 1.285E+00	-4.703E-01	 1.092E-01	-7.116E-02	 8.603E-02	-5.702E-02	 1.301E-02	 2.630E+03	 2.971E+03	 2.466E+03	 3.149E+03	-1.649E+03	-7.073E+02	 2.635E+03	 2.968E+03	 2.465E+03	 3.145E+03	-1.654E+03	-7.119E+02	 1.253E+03	 1.174E+04	 1.348E+02	-7.506E+01	 6.893E+02	 5.484E+00	 3.485E+02	 6.771E+00	 5.291E+02	 1.060E-01	 8.250E+01	 4.814E+02	 2.599E+02	 5.484E+00	 8.642E+00
   2.634	 4.531E+00	-3.469E+00	 0.000E+00	 1.447E+00	 1.423E+00	 1.287E+00	-4.689E-01	 7.472E-02	-4.460E-02	 9.747E-02	-3.270E-02	 1.371E-02	 2.632E+03	 2.948E+03	 2.487E+03	 3.141E+03	-1.443E+03	-8.680E+02	 2.638E+03	 2.945E+03	 2.486E+03	 3.136E+03	-1.448E+03	-8.726E+02	 1.281E+03	 1.131E+04	 6.336E+01	-8.313E+01	 6.478E+02	 5.488E+00	 3.494E+02	 6.782E+00	 5.297E+02	 1.060E-01	 8.301E+01	 5.038E+02	 2.591E+02	 5.488E+00	 9.037E+00
   2.647	 4.531E+00	-3.469E+00	 0.000E+00	 1.449E+00	 1.422E+00	 1.288E+00	-4.682E-01	 4.663E-02	-2.222E-02	 1.066E-01	-1.313E-02	 1.423E-02	 2.634E+03	 2.932E+03	 2.504E+03	 3.135E+03	-1.276E+03	-1.003E+03	 2.640E+03	 2.930E+03	 2.502E+03	 3.130E+03	-1.281E+03	-1.008E+03	 1.316E+03	 1.097E+04	 4.813E+00	-9.123E+01	 6.166E+02	 5.491E+00	 3.502E+02	 6.794E+00	 5.302E+02	 1.060E-01	 8.343E+01	 5.202E+02	 2.585E+02	 5.491E+00	 9.327E+00
   2.659	 4.531E+00	-3.469E+00	 0.000E+00	 1.450E+00	 1.421E+00	 1.290E+00	-4.679E-01	 1.823E-02	 1.192E-03	 1.157E-01	 6.226E-03	 1.474E-02	 2.637E+03	 2.917E+03	 2.520E+03	 3.133E+03	-1.107E+03	-1.145E+03	 2.643E+03	 2.915E+03	 2.518E+03	 3.128E+03	-1.112E+03	-1.150E+03	 1.365E+03	 1.063E+04	-5.474E+01	-9.929E+01	 5.870E+02	 5.495E+00	 3.511E+02	 6.805E+00	 5.308E+02	 1.060E-01	 8.384E+01	 5.350E+02	 2.579E+02	 5.495E+00	 9.586E+00
   2.675	 4.531E+00	-3.469E+00	 0.000E+00	 1.453E+00	 1.422E+00	 1.291E+00	-4.680E-01	-1.722E-02	 3.151E-02	 1.269E-01	 3.010E-02	 1.537E-02	 2.640E+03	 2.901E+03	 2.540E+03	 3.132E+03	-8.969E+02	-1.329E+03	 2.646E+03	 2.899E+03	 2.537E+03	 3.127E+03	-9.023E+02	-1.333E+03	 1.443E+03	 1.022E+04	-1.295E+02	-1.103E+02	 5.533E+02	 5.499E+00	 3.531E+02	 6.829E+00	 5.316E+02	 1.060E-01	 8.435E+01	 5.510E+02	 2.572E+02	 5.499E+00	 9.864E+00
   2.694	 4.531E+00	-3.469E+00	 0.000E+00	 1.456E+00	 1.424E+00	 1.292E+00	-4.689E-01	-5.908E-02	 6.906E-02	 1.401E-01	 5.822E-02	 1.610E-02	 2.644E+03	 2.887E+03	 2.561E+03	 3.136E+03	-6.506E+02	-1.555E+03	 2.650E+03	 2.885E+03	 2.558E+03	 3.131E+03	-6.560E+02	-1.559E+03	 1.561E+03	 9.728E+03	-2.184E+02	-1.255E+02	 5.201E+02	 5.505E+00	 3.542E+02	 6.841E+00	 5.327E+02	 1.060E-01	 8.497E+01	 5.659E+02	 2.564E+02	 5.505E+00	 1.012E+01
[...]
 123.400	 4.531E+00	-3.469E+00	 0.000E+00	 2.499E+00	 2.384E+00	 2.588E+00	 6.326E-03	-1.518E-01	-6.295E-01	-3.174E-04	-1.028E-02	 3.332E-05	 4.845E+03	 4.449E+03	 4.783E+03	-1.774E+03	-3.495E+02	 3.672E+03	 4.841E+03	 4.449E+03	 4.789E+03	-1.783E+03	-3.577E+02	 3.663E+03	 1.589E+03	 2.714E+04	-6.323E+01	 3.943E+02	-4.762E+02	 8.465E+00	 1.379E+03	 1.725E+01	 8.212E+02	 1.060E-01	 2.237E+02	 1.482E+03	 4.029E+02	 8.465E+00	 1.724E+01
 123.413	 4.531E+00	-3.469E+00	 0.000E+00	 2.498E+00	 2.385E+00	 2.589E+00	 9.372E-03	-1.560E-01	-6.283E-01	-3.019E-04	-1.031E-02	 2.033E-05	 4.842E+03	 4.449E+03	 4.785E+03	-1.799E+03	-3.143E+02	 3.663E+03	 4.839E+03	 4.448E+03	 4.792E+03	-1.808E+03	-3.225E+02	 3.654E+03	 1.584E+03	 2.714E+04	-6.316E+01	 3.890E+02	-4.804E+02	 8.465E+00	 1.379E+03	 1.725E+01	 8.211E+02	 1.060E-01	 2.244E+02	 1.482E+03	 4.029E+02	 8.465E+00	 1.724E+01
 123.425	 4.531E+00	-3.469E+00	 0.000E+00	 2.497E+00	 2.386E+00	 2.590E+00	 1.237E-02	-1.602E-01	-6.271E-01	-2.164E-04	-1.035E-02	 4.699E-05	 4.840E+03	 4.449E+03	 4.787E+03	-1.825E+03	-2.787E+02	 3.652E+03	 4.837E+03	 4.448E+03	 4.794E+03	-1.834E+03	-2.870E+02	 3.643E+03	 1.580E+03	 2.714E+04	-6.311E+01	 3.834E+02	-4.842E+02	 8.465E+00	 1.379E+03	 1.725E+01	 8.211E+02	 1.060E-01	 2.250E+02	 1.482E+03	 4.029E+02	 8.465E+00	 1.724E+01
 123.444	 4.531E+00	-3.469E+00	 0.000E+00	 2.494E+00	 2.387E+00	 2.591E+00	 1.678E-02	-1.665E-01	-6.253E-01	-1.670E-04	-1.041E-02	 3.563E-05	 4.837E+03	 4.449E+03	 4.791E+03	-1.862E+03	-2.256E+02	 3.636E+03	 4.833E+03	 4.448E+03	 4.798E+03	-1.871E+03	-2.339E+02	 3.627E+03	 1.573E+03	 2.714E+04	-6.316E+01	 3.752E+02	-4.902E+02	 8.465E+00	 1.379E+03	 1.725E+01	 8.211E+02	 1.060E-01	 2.260E+02	 1.482E+03	 4.029E+02	 8.465E+00	 1.724E+01
 123.456	 4.531E+00	-3.469E+00	 0.000E+00	 2.493E+00	 2.388E+00	 2.591E+00	 1.966E-02	-1.707E-01	-6.240E-01	-2.139E-05	-1.048E-02	 7.786E-05	 4.835E+03	 4.449E+03	 4.793E+03	-1.886E+03	-1.900E+02	 3.625E+03	 4.831E+03	 4.449E+03	 4.800E+03	-1.895E+03	-1.982E+02	 3.616E+03	 1.569E+03	 2.714E+04	-6.332E+01	 3.695E+02	-4.936E+02	 8.465E+00	 1.379E+03	 1.725E+01	 8.211E+02	 1.060E-01	 2.266E+02	 1.482E+03	 4.029E+02	 8.465E+00	 1.724E+01
 123.469	 4.531E+00	-3.469E+00	 0.000E+00	 2.492E+00	 2.388E+00	 2.592E+00	 2.248E-02	-1.749E-01	-6.226E-01	 2.845E-05	-1.062E-02	 7.354E-05	 4.832E+03	 4.449E+03	 4.795E+03	-1.910E+03	-1.545E+02	 3.613E+03	 4.829E+03	 4.449E+03	 4.802E+03	-1.919E+03	-1.627E+02	 3.604E+03	 1.566E+03	 2.713E+04	-6.360E+01	 3.638E+02	-4.974E+02	 8.465E+00	 1.379E+03	 1.725E+01	 8.211E+02	 1.060E-01	 2.272E+02	 1.482E+03	 4.029E+02	 8.465E+00	 1.724E+01
 123.481	 4.531E+00	-3.469E+00	 0.000E+00	 2.490E+00	 2.389E+00	 2.592E+00	 2.526E-02	-1.791E-01	-6.212E-01	 1.534E-04	-1.081E-02	 1.078E-04	 4.830E+03	 4.449E+03	 4.798E+03	-1.933E+03	-1.188E+02	 3.601E+03	 4.826E+03	 4.449E+03	 4.804E+03	-1.942E+03	-1.270E+02	 3.592E+03	 1.562E+03	 2.713E+04	-6.395E+01	 3.579E+02	-5.007E+02	 8.465E+00	 1.379E+03	 1.725E+01	 8.211E+02	 1.060E-01	 2.279E+02	 1.482E+03	 4.029E+02	 8.465E+00	 1.724E+01
 123.494	 4.531E+00	-3.469E+00	 0.000E+00	 2.489E+00	 2.390E+00	 2.593E+00	 2.799E-02	-1.833E-01	-6.197E-01	 2.049E-04	-1.099E-02	 9.889E-05	 4.827E+03	 4.449E+03	 4.800E+03	-1.956E+03	-8.326E+01	 3.588E+03	 4.824E+03	 4.449E+03	 4.807E+03	-1.965E+03	-9.149E+01	 3.579E+03	 1.559E+03	 2.713E+04	-6.434E+01	 3.522E+02	-5.043E+02	 8.465E+00	 1.379E+03	 1.725E+01	 8.211E+02	 1.060E-01	 2.285E+02	 1.482E+03	 4.029E+02	 8.465E+00	 1.724E+01
 123.509	 4.531E+00	-3.469E+00	 0.000E+00	 2.487E+00	 2.391E+00	 2.593E+00	 3.133E-02	-1.885E-01	-6.178E-01	 3.219E-04	-1.114E-02	 1.160E-04	 4.825E+03	 4.450E+03	 4.803E+03	-1.985E+03	-3.861E+01	 3.572E+03	 4.821E+03	 4.449E+03	 4.809E+03	-1.993E+03	-4.684E+01	 3.563E+03	 1.556E+03	 2.713E+04	-6.479E+01	 3.449E+02	-5.084E+02	 8.465E+00	 1.379E+03	 1.725E+01	 8.211E+02	 1.060E-01	 2.293E+02	 1.482E+03	 4.029E+02	 8.465E+00	 1.724E+01
 123.522	 4.531E+00	-3.469E+00	 0.000E+00	 2.486E+00	 2.392E+00	 2.594E+00	 3.396E-02	-1.927E-01	-6.162E-01	 3.675E-04	-1.123E-02	 9.830E-05	 4.822E+03	 4.450E+03	 4.805E+03	-2.007E+03	-3.032E+00	 3.559E+03	 4.818E+03	 4.450E+03	 4.811E+03	-2.016E+03	-1.126E+01	 3.550E+03	 1.554E+03	 2.713E+04	-6.507E+01	 3.391E+02	-5.119E+02	 8.465E+00	 1.379E+03	 1.725E+01	 8.211E+02	 1.060E-01	 2.299E+02	 1.482E+03	 4.029E+02	 8.465E+00	 1.724E+01
 123.534	 4.531E+00	-3.469E+00	 0.000E+00	 2.484E+00	 2.393E+00	 2.594E+00	 3.653E-02	-1.969E-01	-6.146E-01	 4.699E-04	-1.127E-02	 1.120E-04	 4.820E+03	 4.450E+03	 4.807E+03	-2.029E+03	 3.276E+01	 3.545E+03	 4.816E+03	 4.450E+03	 4.814E+03	-2.038E+03	 2.453E+01	 3.536E+03	 1.551E+03	 2.712E+04	-6.527E+01	 3.331E+02	-5.150E+02	 8.465E+00	 1.379E+03	 1.725E+01	 8.211E+02	 1.060E-01	 2.306E+02	 1.482E+03	 4.029E+02	 8.465E+00	 1.724E+01
 123.547	 4.531E+00	-3.469E+00	 0.000E+00	 2.483E+00	 2.394E+00	 2.595E+00	 3.907E-02	-2.011E-01	-6.129E-01	 5.081E-04	-1.125E-02	 8.675E-05	 4.817E+03	 4.450E+03	 4.809E+03	-2.050E+03	 6.838E+01	 3.531E+03	 4.814E+03	 4.450E+03	 4.816E+03	-2.059E+03	 6.014E+01	 3.522E+03	 1.549E+03	 2.712E+04	-6.540E+01	 3.273E+02	-5.184E+02	 8.465E+00	 1.379E+03	 1.725E+01	 8.211E+02	 1.060E-01	 2.312E+02	 1.482E+03	 4.029E+02	 8.465E+00	 1.724E+01
 123.559	 4.531E+00	-3.469E+00	 0.000E+00	 2.481E+00	 2.395E+00	 2.595E+00	 4.156E-02	-2.053E-01	-6.112E-01	 6.296E-04	-1.120E-02	 1.013E-04	 4.815E+03	 4.450E+03	 4.812E+03	-2.071E+03	 1.042E+02	 3.516E+03	 4.811E+03	 4.451E+03	 4.818E+03	-2.080E+03	 9.596E+01	 3.507E+03	 1.548E+03	 2.712E+04	-6.546E+01	 3.212E+02	-5.215E+02	 8.465E+00	 1.379E+03	 1.725E+01	 8.211E+02	 1.060E-01	 2.318E+02	 1.482E+03	 4.029E+02	 8.465E+00	 1.724E+01
 123.575	 4.531E+00	-3.469E+00	 0.000E+00	 2.480E+00	 2.396E+00	 2.596E+00	 4.461E-02	-2.105E-01	-6.090E-01	 7.424E-04	-1.111E-02	 1.020E-04	 4.812E+03	 4.451E+03	 4.814E+03	-2.097E+03	 1.489E+02	 3.497E+03	 4.808E+03	 4.451E+03	 4.821E+03	-2.106E+03	 1.407E+02	 3.488E+03	 1.546E+03	 2.712E+04	-6.551E+01	 3.137E+02	-5.253E+02	 8.465E+00	 1.379E+03	 1.725E+01	 8.211E+02	 1.060E-01	 2.326E+02	 1.482E+03	 4.029E+02	 8.465E+00	 1.724E+01
 123.588	 4.531E+00	-3.469E+00	 0.000E+00	 2.478E+00	 2.397E+00	 2.596E+00	 4.701E-02	-2.147E-01	-6.072E-01	 7.616E-04	-1.102E-02	 6.830E-05	 4.810E+03	 4.451E+03	 4.817E+03	-2.117E+03	 1.845E+02	 3.482E+03	 4.806E+03	 4.451E+03	 4.823E+03	-2.126E+03	 1.763E+02	 3.473E+03	 1.545E+03	 2.711E+04	-6.556E+01	 3.079E+02	-5.286E+02	 8.465E+00	 1.379E+03	 1.725E+01	 8.211E+02	 1.060E-01	 2.333E+02	 1.482E+03	 4.029E+02	 8.465E+00	 1.724E+01
 123.600	 4.531E+00	-3.469E+00	 0.000E+00	 2.477E+00	 2.398E+00	 2.597E+00	 4.936E-02	-2.189E-01	-6.054E-01	 8.368E-04	-1.096E-02	 6.965E-05	 4.807E+03	 4.451E+03	 4.819E+03	-2.137E+03	 2.203E+02	 3.466E+03	 4.803E+03	 4.452E+03	 4.825E+03	-2.146E+03	 2.121E+02	 3.457E+03	 1.544E+03	 2.711E+04	-6.568E+01	 3.018E+02	-5.315E+02	 8.465E+00	 1.379E+03	 1.725E+01	 8.211E+02	 1.060E-01	 2.339E+02	 1.482E+03	 4.029E+02	 8.465E+00	 1.724E+01
 123.613	 4.531E+00	-3.469E+00	 0.000E+00	 2.475E+00	 2.399E+00	 2.597E+00	 5.167E-02	-2.231E-01	-6.035E-01	 8.505E-04	-1.091E-02	 3.849E-05	 4.805E+03	 4.452E+03	 4.821E+03	-2.157E+03	 2.559E+02	 3.450E+03	 4.801E+03	 4.452E+03	 4.827E+03	-2.166E+03	 2.477E+02	 3.441E+03	 1.543E+03	 2.711E+04	-6.586E+01	 2.959E+02	-5.347E+02	 8.465E+00	 1.379E+03	 1.725E+01	 8.211E+02	 1.060E-01	 2.345E+02	 1.482E+03	 4.029E+02	 8.465E+00	 1.724E+01
 123.631	 4.531E+00	-3.469E+00	 0.000E+00	 2.473E+00	 2.401E+00	 2.598E+00	 5.507E-02	-2.294E-01	-6.006E-01	 9.315E-04	-1.092E-02	 3.468E-05	 4.801E+03	 4.452E+03	 4.824E+03	-2.186E+03	 3.095E+02	 3.425E+03	 4.797E+03	 4.453E+03	 4.830E+03	-2.195E+03	 3.013E+02	 3.416E+03	 1.543E+03	 2.711E+04	-6.627E+01	 2.869E+02	-5.391E+02	 8.465E+00	 1.379E+03	 1.725E+01	 8.211E+02	 1.060E-01	 2.355E+02	 1.482E+03	 4.029E+02	 8.465E+00	 1.724E+01
 123.644	 4.531E+00	-3.469E+00	 0.000E+00	 2.472E+00	 2.402E+00	 2.598E+00	 5.728E-02	-2.336E-01	-5.986E-01	 9.537E-04	-1.093E-02	 1.821E-05	 4.799E+03	 4.452E+03	 4.826E+03	-2.204E+03	 3.451E+02	 3.408E+03	 4.795E+03	 4.453E+03	 4.832E+03	-2.213E+03	 3.368E+02	 3.399E+03	 1.543E+03	 2.711E+04	-6.662E+01	 2.809E+02	-5.421E+02	 8.465E+00	 1.379E+03	 1.725E+01	 8.211E+02	 1.060E-01	 2.361E+02	 1.482E+03	 4.029E+02	 8.465E+00	 1.724E+01
 123.656	 4.531E+00	-3.469E+00	 0.000E+00	 2.470E+00	 2.403E+00	 2.598E+00	 5.946E-02	-2.378E-01	-5.966E-01	 1.058E-03	-1.096E-02	 5.339E-05	 4.796E+03	 4.453E+03	 4.828E+03	-2.223E+03	 3.808E+02	 3.391E+03	 4.792E+03	 4.453E+03	 4.834E+03	-2.232E+03	 3.726E+02	 3.382E+03	 1.543E+03	 2.710E+04	-6.697E+01	 2.747E+02	-5.445E+02	 8.465E+00	 1.379E+03	 1.725E+01	 8.211E+02	 1.060E-01	 2.368E+02	 1.482E+03	 4.029E+02	 8.465E+00	 1.724E+01
 123.669	 4.531E+00	-3.469E+00	 0.000E+00	 2.469E+00	 2.404E+00	 2.599E+00	 6.160E-02	-2.419E-01	-5.946E-01	 1.089E-03	-1.093E-02	 5.103E-05	 4.794E+03	 4.453E+03	 4.830E+03	-2.241E+03	 4.164E+02	 3.374E+03	 4.790E+03	 4.454E+03	 4.836E+03	-2.250E+03	 4.082E+02	 3.365E+03	 1.544E+03	 2.710E+04	-6.730E+01	 2.687E+02	-5.474E+02	 8.465E+00	 1.379E+03	 1.725E+01	 8.211E+02	 1.060E-01	 2.374E+02	 1.482E+03	 4.029E+02	 8.465E+00	 1.724E+01
 123.681	 4.531E+00	-3.469E+00	 0.000E+00	 2.468E+00	 2.405E+00	 2.599E+00	 6.371E-02	-2.461E-01	-5.925E-01	 1.213E-03	-1.088E-02	 1.007E-04	 4.791E+03	 4.454E+03	 4.832E+03	-2.259E+03	 4.522E+02	 3.356E+03	 4.787E+03	 4.454E+03	 4.838E+03	-2.268E+03	 4.439E+02	 3.347E+03	 1.544E+03	 2.710E+04	-6.758E+01	 2.625E+02	-5.496E+02	 8.465E+00	 1.379E+03	 1.725E+01	 8.211E+02	 1.060E-01	 2.380E+02	 1.482E+03	 4.029E+02	 8.465E+00	 1.724E+01
 123.697	 4.531E+00	-3.469E+00	 0.000E+00	 2.466E+00	 2.406E+00	 2.599E+00	 6.629E-02	-2.514E-01	-5.899E-01	 1.258E-03	-1.074E-02	 1.138E-04	 4.788E+03	 4.454E+03	 4.834E+03	-2.281E+03	 4.967E+02	 3.333E+03	 4.784E+03	 4.455E+03	 4.840E+03	-2.290E+03	 4.884E+02	 3.324E+03	 1.546E+03	 2.710E+04	-6.788E+01	 2.549E+02	-5.529E+02	 8.465E+00	 1.379E+03	 1.725E+01	 8.211E+02	 1.060E-01	 2.388E+02	 1.482E+03	 4.028E+02	 8.465E+00	 1.724E+01
 123.709	 4.531E+00	-3.469E+00	 0.000E+00	 2.465E+00	 2.407E+00	 2.600E+00	 6.833E-02	-2.555E-01	-5.877E-01	 1.332E-03	-1.057E-02	 1.569E-04	 4.786E+03	 4.455E+03	 4.836E+03	-2.298E+03	 5.324E+02	 3.314E+03	 4.781E+03	 4.456E+03	 4.842E+03	-2.307E+03	 5.242E+02	 3.305E+03	 1.547E+03	 2.710E+04	-6.810E+01	 2.488E+02	-5.550E+02	 8.465E+00	 1.379E+03	 1.725E+01	 8.211E+02	 1.060E-01	 2.395E+02	 1.482E+03	 4.028E+02	 8.465E+00	 1.724E+01
 123.722	 4.531E+00	-3.469E+00	 0.000E+00	 2.463E+00	 2.409E+00	 2.600E+00	 7.033E-02	-2.597E-01	-5.855E-01	 1.360E-03	-1.045E-02	 1.692E-04	 4.783E+03	 4.455E+03	 4.838E+03	-2.315E+03	 5.680E+02	 3.296E+03	 4.779E+03	 4.456E+03	 4.844E+03	-2.324E+03	 5.597E+02	 3.287E+03	 1.548E+03	 2.710E+04	-6.834E+01	 2.427E+02	-5.575E+02	 8.465E+00	 1.379E+03	 1.725E+01	 8.211E+02	 1.060E-01	 2.401E+02	 1.482E+03	 4.028E+02	 8.465E+00	 1.724E+01
 123.734	 4.531E+00	-3.469E+00	 0.000E+00	 2.462E+00	 2.410E+00	 2.600E+00	 7.231E-02	-2.639E-01	-5.833E-01	 1.473E-03	-1.034E-02	 2.295E-04	 4.781E+03	 4.456E+03	 4.840E+03	-2.332E+03	 6.038E+02	 3.277E+03	 4.776E+03	 4.457E+03	 4.846E+03	-2.340E+03	 5.955E+02	 3.268E+03	 1.550E+03	 2.710E+04	-6.862E+01	 2.365E+02	-5.594E+02	 8.465E+00	 1.379E+03	 1.725E+01	 8.211E+02	 1.060E-01	 2.407E+02	 1.482E+03	 4.028E+02	 8.465E+00	 1.724E+01
 123.747	 4.531E+00	-3.469E+00	 0.000E+00	 2.460E+00	 2.411E+00	 2.600E+00	 7.425E-02	-2.681E-01	-5.811E-01	 1.491E-03	-1.027E-02	 2.387E-04	 4.778E+03	 4.456E+03	 4.841E+03	-2.348E+03	 6.393E+02	 3.257E+03	 4.774E+03	 4.457E+03	 4.847E+03	-2.357E+03	 6.311E+02	 3.248E+03	 1.552E+03	 2.710E+04	-6.894E+01	 2.303E+02	-5.617E+02	 8.465E+00	 1.379E+03	 1.725E+01	 8.211E+02	 1.060E-01	 2.414E+02	 1.482E+03	 4.028E+02	 8.465E+00	 1.724E+01
 123.763	 4.531E+00	-3.469E+00	 0.000E+00	 2.459E+00	 2.412E+00	 2.601E+00	 7.665E-02	-2.733E-01	-5.783E-01	 1.615E-03	-1.025E-02	 2.993E-04	 4.775E+03	 4.457E+03	 4.843E+03	-2.368E+03	 6.840E+02	 3.233E+03	 4.771E+03	 4.458E+03	 4.849E+03	-2.377E+03	 6.758E+02	 3.224E+03	 1.555E+03	 2.710E+04	-6.938E+01	 2.225E+02	-5.640E+02	 8.465E+00	 1.379E+03	 1.725E+01	 8.211E+02	 1.060E-01	 2.421E+02	 1.482E+03	 4.028E+02	 8.465E+00	 1.724E+01
 123.775	 4.531E+00	-3.469E+00	 0.000E+00	 2.457E+00	 2.413E+00	 2.601E+00	 7.853E-02	-2.775E-01	-5.760E-01	 1.704E-03	-1.026E-02	 3.492E-04	 4.772E+03	 4.458E+03	 4.845E+03	-2.384E+03	 7.198E+02	 3.213E+03	 4.768E+03	 4.459E+03	 4.851E+03	-2.393E+03	 7.115E+02	 3.204E+03	 1.558E+03	 2.709E+04	-6.974E+01	 2.162E+02	-5.656E+02	 8.465E+00	 1.379E+03	 1.725E+01	 8.211E+02	 1.060E-01	 2.428E+02	 1.482E+03	 4.027E+02	 8.465E+00	 1.724E+01
 123.788	 4.531E+00	-3.469E+00	 0.000E+00	 2.456E+00	 2.414E+00	 2.601E+00	 8.039E-02	-2.817E-01	-5.736E-01	 1.731E-03	-1.022E-02	 3.518E-04	 4.770E+03	 4.459E+03	 4.847E+03	-2.399E+03	 7.554E+02	 3.193E+03	 4.765E+03	 4.460E+03	 4.853E+03	-2.408E+03	 7.471E+02	 3.184E+03	 1.561E+03	 2.709E+04	-7.008E+01	 2.099E+02	-5.677E+02	 8.465E+00	 1.379E+03	 1.725E+01	 8.211E+02	 1.060E-01	 2.434E+02	 1.482E+03	 4.027E+02	 8.465E+00	 1.724E+01
 123.800	 4.531E+00	-3.469E+00	 0.000E+00	 2.455E+00	 2.415E+00	 2.601E+00	 8.223E-02	-2.859E-01	-5.713E-01	 1.831E-03	-1.018E-02	 3.926E-04	 4.767E+03	 4.459E+03	 4.848E+03	-2.414E+03	 7.911E+02	 3.172E+03	 4.763E+03	 4.461E+03	 4.854E+03	-2.423E+03	 7.829E+02	 3.163E+03	 1.565E+03	 2.709E+04	-7.036E+01	 2.036E+02	-5.692E+02	 8.465E+00	 1.379E+03	 1.725E+01	 8.211E+02	 1.060E-01	 2.441E+02	 1.482E+03	 4.027E+02	 8.465E+00	 1.724E+01
 123.819	 4.531E+00	-3.469E+00	 0.000E+00	 2.453E+00	 2.417E+00	 2.602E+00	 8.493E-02	-2.922E-01	-5.677E-01	 1.888E-03	-1.006E-02	 3.853E-04	 4.764E+03	 4.461E+03	 4.851E+03	-2.437E+03	 8.446E+02	 3.141E+03	 4.759E+03	 4.462E+03	 4.857E+03	-2.446E+03	 8.363E+02	 3.132E+03	 1.570E+03	 2.709E+04	-7.065E+01	 1.941E+02	-5.721E+02	 8.465E+00	 1.379E+03	 1.725E+01	 8.211E+02	 1.060E-01	 2.450E+02	 1.482E+03	 4.027E+02	 8.465E+00	 1.724E+01
 123.831	 4.531E+00	-3.469E+00	 0.000E+00	 2.451E+00	 2.418E+00	 2.602E+00	 8.670E-02	-2.964E-01	-5.653E-01	 2.011E-03	-9.944E-03	 4.230E-04	 4.761E+03	 4.462E+03	 4.853E+03	-2.451E+03	 8.803E+02	 3.120E+03	 4.757E+03	 4.463E+03	 4.858E+03	-2.460E+03	 8.721E+02	 3.111E+03	 1.574E+03	 2.709E+04	-7.076E+01	 1.877E+02	-5.734E+02	 8.465E+00	 1.379E+03	 1.725E+01	 8.211E+02	 1.060E-01	 2.456E+02	 1.482E+03	 4.027E+02	 8.465E+00	 1.724E+01
 123.844	 4.531E+00	-3.469E+00	 0.000E+00	 2.450E+00	 2.419E+00	 2.602E+00	 8.845E-02	-3.006E-01	-5.628E-01	 2.048E-03	-9.818E-03	 4.037E-04	 4.759E+03	 4.463E+03	 4.854E+03	-2.466E+03	 9.160E+02	 3.099E+03	 4.754E+03	 4.464E+03	 4.860E+03	-2.475E+03	 9.077E+02	 3.090E+03	 1.578E+03	 2.709E+04	-7.082E+01	 1.813E+02	-5.751E+02	 8.465E+00	 1.379E+03	 1.725E+01	 8.211E+02	 1.060E-01	 2.463E+02	 1.482E+03	 4.027E+02	 8.465E+00	 1.724E+01
 123.856	 4.531E+00	-3.469E+00	 0.000E+00	 2.449E+00	 2.421E+00	 2.602E+00	 9.017E-02	-3.048E-01	-5.603E-01	 2.153E-03	-9.706E-03	 4.225E-04	 4.756E+03	 4.464E+03	 4.856E+03	-2.480E+03	 9.518E+02	 3.077E+03	 4.752E+03	 4.466E+03	 4.862E+03	-2.489E+03	 9.435E+02	 3.068E+03	 1.582E+03	 2.709E+04	-7.085E+01	 1.748E+02	-5.764E+02	 8.465E+00	 1.379E+03	 1.725E+01	 8.211E+02	 1.060E-01	 2.469E+02	 1.482E+03	 4.028E+02	 8.465E+00	 1.724E+01
 123.869	 4.531E+00	-3.469E+00	 0.000E+00	 2.447E+00	 2.422E+00	 2.602E+00	 9.187E-02	-3.090E-01	-5.578E-01	 2.164E-03	-9.586E-03	 3.834E-04	 4.754E+03	 4.465E+03	 4.858E+03	-2.494E+03	 9.874E+02	 3.055E+03	 4.749E+03	 4.467E+03	 4.864E+03	-2.502E+03	 9.791E+02	 3.046E+03	 1.587E+03	 2.709E+04	-7.087E+01	 1.683E+02	-5.781E+02	 8.465E+00	 1.379E+03	 1.725E+01	 8.211E+02	 1.060E-01	 2.475E+02	 1.482E+03	 4.028E+02	 8.465E+00	 1.724E+01
 123.884	 4.531E+00	-3.469E+00	 0.000E+00	 2.446E+00	 2.423E+00	 2.603E+00	 9.394E-02	-3.142E-01	-5.546E-01	 2.204E-03	-9.463E-03	 3.602E-04	 4.751E+03	 4.466E+03	 4.860E+03	-2.510E+03	 1.032E+03	 3.027E+03	 4.746E+03	 4.468E+03	 4.866E+03	-2.519E+03	 1.024E+03	 3.018E+03	 1.593E+03	 2.708E+04	-7.088E+01	 1.602E+02	-5.797E+02	 8.465E+00	 1.379E+03	 1.725E+01	 8.211E+02	 1.060E-01	 2.483E+02	 1.482E+03	 4.028E+02	 8.465E+00	 1.724E+01
 123.897	 4.531E+00	-3.469E+00	 0.000E+00	 2.444E+00	 2.424E+00	 2.603E+00	 9.557E-02	-3.184E-01	-5.520E-01	 2.173E-03	-9.363E-03	 3.002E-04	 4.748E+03	 4.467E+03	 4.862E+03	-2.524E+03	 1.068E+03	 3.005E+03	 4.743E+03	 4.469E+03	 4.867E+03	-2.532E+03	 1.059E+03	 2.996E+03	 1.598E+03	 2.708E+04	-7.088E+01	 1.537E+02	-5.814E+02	 8.465E+00	 1.379E+03	 1.725E+01	 8.211E+02	 1.060E-01	 2.490E+02	 1.482E+03	 4.028E+02	 8.465E+00	 1.724E+01
 123.909	 4.531E+00	-3.469E+00	 0.000E+00	 2.443E+00	 2.426E+00	 2.603E+00	 9.718E-02	-3.226E-01	-5.494E-01	 2.177E-03	-9.273E-03	 2.740E-04	 4.745E+03	 4.468E+03	 4.863E+03	-2.536E+03	 1.103E+03	 2.982E+03	 4.741E+03	 4.470E+03	 4.869E+03	-2.545E+03	 1.095E+03	 2.973E+03	 1.603E+03	 2.708E+04	-7.088E+01	 1.471E+02	-5.826E+02	 8.465E+00	 1.379E+03	 1.725E+01	 8.211E+02	 1.060E-01	 2.496E+02	 1.482E+03	 4.028E+02	 8.465E+00	 1.724E+01
 123.922	 4.531E+00	-3.469E+00	 0.000E+00	 2.442E+00	 2.427E+00	 2.603E+00	 9.875E-02	-3.268E-01	-5.468E-01	 2.115E-03	-9.169E-03	 2.055E-04	 4.743E+03	 4.469E+03	 4.865E+03	-2.549E+03	 1.139E+03	 2.959E+03	 4.738E+03	 4.471E+03	 4.871E+03	-2.558E+03	 1.131E+03	 2.950E+03	 1.608E+03	 2.708E+04	-7.085E+01	 1.406E+02	-5.843E+02	 8.465E+00	 1.379E+03	 1.725E+01	 8.211E+02	 1.060E-01	 2.502E+02	 1.482E+03	 4.028E+02	 8.465E+00	 1.724E+01
 123.934	 4.531E+00	-3.469E+00	 0.000E+00	 2.440E+00	 2.428E+00	 2.603E+00	 1.003E-01	-3.311E-01	-5.441E-01	 2.131E-03	-9.067E-03	 1.879E-04	 4.740E+03	 4.470E+03	 4.867E+03	-2.561E+03	 1.175E+03	 2.935E+03	 4.736E+03	 4.472E+03	 4.872E+03	-2.570E+03	 1.166E+03	 2.926E+03	 1.614E+03	 2.708E+04	-7.080E+01	 1.340E+02	-5.853E+02	 8.465E+00	 1.379E+03	 1.725E+01	 8.211E+02	 1.060E-01	 2.509E+02	 1.482E+03	 4.028E+02	 8.465E+00	 1.724E+01
 123.950	 4.531E+00	-3.469E+00	 0.000E+00	 2.439E+00	 2.429E+00	 2.603E+00	 1.022E-01	-3.363E-01	-5.407E-01	 2.121E-03	-8.884E-03	 1.586E-04	 4.737E+03	 4.471E+03	 4.869E+03	-2.576E+03	 1.219E+03	 2.906E+03	 4.732E+03	 4.474E+03	 4.874E+03	-2.585E+03	 1.211E+03	 2.897E+03	 1.621E+03	 2.708E+04	-7.067E+01	 1.258E+02	-5.867E+02	 8.465E+00	 1.379E+03	 1.725E+01	 8.211E+02	 1.060E-01	 2.517E+02	 1.482E+03	 4.028E+02	 8.465E+00	 1.724E+01
 123.963	 4.531E+00	-3.469E+00	 0.000E+00	 2.437E+00	 2.431E+00	 2.603E+00	 1.036E-01	-3.405E-01	-5.379E-01	 2.030E-03	-8.736E-03	 9.951E-05	 4.734E+03	 4.472E+03	 4.870E+03	-2.588E+03	 1.255E+03	 2.882E+03	 4.730E+03	 4.474E+03	 4.876E+03	-2.596E+03	 1.246E+03	 2.873E+03	 1.627E+03	 2.708E+04	-7.053E+01	 1.192E+02	-5.882E+02	 8.465E+00	 1.379E+03	 1.725E+01	 8.211E+02	 1.060E-01	 2.523E+02	 1.482E+03	 4.028E+02	 8.465E+00	 1.724E+01
 123.975	 4.531E+00	-3.469E+00	 0.000E+00	 2.436E+00	 2.432E+00	 2.603E+00	 1.051E-01	-3.447E-01	-5.352E-01	 2.004E-03	-8.580E-03	 9.321E-05	 4.732E+03	 4.473E+03	 4.872E+03	-2.599E+03	 1.290E+03	 2.858E+03	 4.727E+03	 4.476E+03	 4.877E+03	-2.608E+03	 1.282E+03	 2.848E+03	 1.633E+03	 2.708E+04	-7.036E+01	 1.125E+02	-5.891E+02	 8.465E+00	 1.379E+03	 1.725E+01	 8.211E+02	 1.060E-01	 2.529E+02	 1.482E+03	 4.028E+02	 8.465E+00	 1.724E+01
 123.988	 4.531E+00	-3.469E+00	 0.000E+00	 2.435E+00	 2.433E+00	 2.603E+00	 1.064E-01	-3.489E-01	-5.323E-01	 1.912E-03	-8.410E-03	 5.148E-05	 4.729E+03	 4.474E+03	 4.873E+03	-2.610E+03	 1.326E+03	 2.833E+03	 4.724E+03	 4.476E+03	 4.879E+03	-2.619E+03	 1.317E+03	 2.824E+03	 1.639E+03	 2.708E+04	-7.016E+01	 1.058E+02	-5.905E+02	 8.465E+00	 1.379E+03	 1.725E+01	 8.211E+02	 1.060E-01	 2.536E+02	 1.482E+03	 4.028E+02	 8.465E+00	 1.724E+01
