
These predictions were generated by FAST (v7.02.00d-bjj, 20-Feb-2013)-Compiled as S-Function for Simulink on 15-May-2017 at 12:01:24.
The aerodynamic calculations were made by AeroDyn (v13.00.02a-bjj, 20-Feb-2013).

 Input files for FAST v7.02.

Time	uWind	vWind	wWind	OoPDefl1	OoPDefl2	OoPDefl3	IPDefl1	IPDefl2	IPDefl3	NcIMUTAxs	NcIMUTAys	NcIMUTAzs	RootMOoP1	RootMOoP2	RootMOoP3	RootMIP1	RootMIP2	RootMIP3	RootMFlp1	RootMFlp2	RootMFlp3	RootMEdg1	RootMEdg2	RootMEdg3	TwrBsMxt	TwrBsMyt	TwrBsMzt	LSSTipMya	LSSTipMza	LSSTipVxa	GenPwr	GenTq	GenSpeed	BlPitch1	Azimuth	RotPwr	RotThrust	RotSpeed	HSShftTq
(s)	(m/s)	(m/s)	(m/s)	(m)	(m)	(m)	(m)	(m)	(m)	(m/s^2)	(m/s^2)	(m/s^2)	(kN·m)	(kN·m)	(kN·m)	(kN·m)	(kN·m)	(kN·m)	(kN·m)	(kN·m)	(kN·m)	(kN·m)	(kN·m)	(kN·m)	(kN·m)	(kN·m)	(kN·m)	(kN·m)	(kN·m)	(rpm)	(kW)	(kN·m)	(rpm)	(deg)	(deg)	(kW)	(kN)	(rpm)	(kN·m)
   0.013	 3.288E+01	 0.000E+00	 0.000E+00	 7.382E-03	 6.022E-03	 5.944E-03	 9.860E-04	-3.169E-04	 2.578E-03	 5.481E-01	-6.174E-03	 1.109E-01	 8.252E+02	 7.187E+02	 7.713E+02	 7.128E+01	 7.949E+02	-8.242E+02	 8.253E+02	 7.202E+02	 7.698E+02	 6.976E+01	 7.936E+02	-8.257E+02	 1.633E+01	 5.368E+01	-8.092E+00	 4.143E+00	-6.857E+01	 5.026E+00	 0.000E+00	 0.000E+00	 4.850E+02	 1.060E-01	 3.760E-01	 1.641E+01	 2.339E+02	 5.026E+00	 3.215E-01
   0.025	 3.288E+01	 0.000E+00	 0.000E+00	 2.963E-02	 2.419E-02	 2.385E-02	 3.778E-03	-1.414E-03	 1.014E-02	 5.825E-01	-3.565E-02	 1.167E-01	 9.593E+02	 8.384E+02	 8.721E+02	 8.298E+01	 8.349E+02	-8.450E+02	 9.594E+02	 8.399E+02	 8.706E+02	 8.120E+01	 8.334E+02	-8.466E+02	 3.433E+01	 3.822E+01	-2.243E+01	 2.322E+01	-4.937E+01	 5.049E+00	 0.000E+00	 0.000E+00	 4.852E+02	 1.060E-01	 7.538E-01	 4.633E+01	 2.438E+02	 5.049E+00	 9.032E-01
   0.038	 3.288E+01	 0.000E+00	 0.000E+00	 6.607E-02	 5.400E-02	 5.337E-02	 8.020E-03	-3.620E-03	 2.230E-02	 6.475E-01	-7.310E-02	 1.284E-01	 1.187E+03	 1.045E+03	 1.045E+03	 1.013E+02	 8.986E+02	-8.839E+02	 1.187E+03	 1.046E+03	 1.044E+03	 9.911E+01	 8.966E+02	-8.859E+02	 5.336E+01	 1.450E+01	-3.305E+01	 6.061E+01	-1.780E+01	 5.069E+00	 0.000E+00	 0.000E+00	 4.854E+02	 1.060E-01	 1.133E+00	 8.637E+01	 2.620E+02	 5.069E+00	 1.677E+00
   0.056	 3.288E+01	 0.000E+00	 0.000E+00	 1.447E-01	 1.186E-01	 1.176E-01	 1.591E-02	-9.780E-03	 4.744E-02	 7.678E-01	-1.186E-01	 1.485E-01	 1.640E+03	 1.456E+03	 1.397E+03	 1.324E+02	 1.025E+03	-9.702E+02	 1.641E+03	 1.458E+03	 1.395E+03	 1.294E+02	 1.022E+03	-9.728E+02	 7.113E+01	-4.667E+01	-2.070E+01	 1.324E+02	 4.088E+01	 5.091E+00	 0.000E+00	 0.000E+00	 4.862E+02	 1.060E-01	 1.705E+00	 1.569E+02	 2.965E+02	 5.091E+00	 3.034E+00
   0.069	 3.288E+01	 0.000E+00	 0.000E+00	 2.150E-01	 1.768E-01	 1.753E-01	 2.135E-02	-1.694E-02	 6.835E-02	 8.777E-01	-1.373E-01	 1.664E-01	 2.036E+03	 1.816E+03	 1.705E+03	 1.580E+02	 1.130E+03	-1.054E+03	 2.037E+03	 1.818E+03	 1.703E+03	 1.542E+02	 1.127E+03	-1.057E+03	 6.430E+01	-1.043E+02	 2.039E+01	 1.925E+02	 9.199E+01	 5.098E+00	 0.000E+00	 0.000E+00	 4.870E+02	 1.060E-01	 2.087E+00	 2.047E+02	 3.284E+02	 5.098E+00	 3.953E+00
   0.081	 3.288E+01	 0.000E+00	 0.000E+00	 2.992E-01	 2.469E-01	 2.445E-01	 2.599E-02	-2.714E-02	 9.138E-02	 9.848E-01	-1.348E-01	 1.818E-01	 2.455E+03	 2.198E+03	 2.040E+03	 1.828E+02	 1.245E+03	-1.156E+03	 2.455E+03	 2.200E+03	 2.038E+03	 1.782E+02	 1.241E+03	-1.160E+03	 3.527E+01	-1.821E+02	 8.965E+01	 2.493E+02	 1.407E+02	 5.101E+00	 0.000E+00	 0.000E+00	 4.880E+02	 1.060E-01	 2.469E+00	 2.477E+02	 3.608E+02	 5.101E+00	 4.781E+00
   0.097	 3.288E+01	 0.000E+00	 0.000E+00	 4.267E-01	 3.544E-01	 3.494E-01	 2.921E-02	-4.582E-02	 1.221E-01	 1.134E+00	-1.093E-01	 2.017E-01	 3.035E+03	 2.722E+03	 2.508E+03	 2.147E+02	 1.403E+03	-1.315E+03	 3.035E+03	 2.725E+03	 2.506E+03	 2.091E+02	 1.398E+03	-1.320E+03	-4.501E+01	-2.974E+02	 2.091E+02	 3.291E+02	 2.002E+02	 5.097E+00	 0.000E+00	 0.000E+00	 4.895E+02	 1.060E-01	 2.948E+00	 2.862E+02	 4.068E+02	 5.097E+00	 5.528E+00
   0.113	 3.288E+01	 0.000E+00	 0.000E+00	 5.720E-01	 4.782E-01	 4.688E-01	 2.927E-02	-6.981E-02	 1.529E-01	 1.269E+00	-7.228E-02	 2.161E-01	 3.605E+03	 3.239E+03	 2.979E+03	 2.404E+02	 1.568E+03	-1.497E+03	 3.606E+03	 3.242E+03	 2.976E+03	 2.338E+02	 1.562E+03	-1.502E+03	-1.620E+02	-4.275E+02	 3.314E+02	 4.003E+02	 2.516E+02	 5.089E+00	 0.000E+00	 0.000E+00	 4.911E+02	 1.060E-01	 3.425E+00	 3.079E+02	 4.508E+02	 5.089E+00	 5.956E+00
   0.131	 3.288E+01	 0.000E+00	 0.000E+00	 7.753E-01	 6.534E-01	 6.353E-01	 2.355E-02	-1.075E-01	 1.892E-01	 1.413E+00	-2.197E-02	 2.266E-01	 4.278E+03	 3.839E+03	 3.543E+03	 2.628E+02	 1.776E+03	-1.750E+03	 4.279E+03	 3.843E+03	 3.539E+03	 2.549E+02	 1.769E+03	-1.757E+03	-3.554E+02	-5.892E+02	 4.590E+02	 4.826E+02	 2.949E+02	 5.075E+00	 0.000E+00	 0.000E+00	 4.931E+02	 1.060E-01	 3.997E+00	 3.054E+02	 5.010E+02	 5.075E+00	 5.925E+00
   0.144	 3.288E+01	 0.000E+00	 0.000E+00	 9.291E-01	 7.876E-01	 7.608E-01	 1.538E-02	-1.385E-01	 2.120E-01	 1.492E+00	 5.196E-03	 2.286E-01	 4.702E+03	 4.209E+03	 3.904E+03	 2.709E+02	 1.919E+03	-1.939E+03	 4.702E+03	 4.212E+03	 3.900E+03	 2.622E+02	 1.911E+03	-1.946E+03	-5.084E+02	-6.844E+02	 5.095E+02	 5.344E+02	 3.064E+02	 5.065E+00	 0.000E+00	 0.000E+00	 4.943E+02	 1.060E-01	 4.377E+00	 2.846E+02	 5.312E+02	 5.065E+00	 5.532E+00
   0.156	 3.288E+01	 0.000E+00	 0.000E+00	 1.096E+00	 9.347E-01	 8.971E-01	 3.783E-03	-1.737E-01	 2.334E-01	 1.550E+00	 2.155E-02	 2.253E-01	 5.087E+03	 4.541E+03	 4.238E+03	 2.725E+02	 2.065E+03	-2.139E+03	 5.088E+03	 4.544E+03	 4.234E+03	 2.631E+02	 2.057E+03	-2.147E+03	-6.668E+02	-7.581E+02	 5.253E+02	 5.802E+02	 3.071E+02	 5.055E+00	 0.000E+00	 0.000E+00	 4.955E+02	 1.060E-01	 4.757E+00	 2.511E+02	 5.566E+02	 5.055E+00	 4.891E+00
   0.172	 3.288E+01	 0.000E+00	 0.000E+00	 1.326E+00	 1.138E+00	 1.083E+00	-1.605E-02	-2.240E-01	 2.576E-01	 1.597E+00	 2.462E-02	 2.162E-01	 5.521E+03	 4.901E+03	 4.619E+03	 2.688E+02	 2.253E+03	-2.405E+03	 5.521E+03	 4.905E+03	 4.615E+03	 2.586E+02	 2.244E+03	-2.414E+03	-8.487E+02	-7.853E+02	 4.920E+02	 6.329E+02	 2.878E+02	 5.047E+00	 0.000E+00	 0.000E+00	 4.967E+02	 1.060E-01	 5.230E+00	 1.931E+02	 5.826E+02	 5.047E+00	 3.767E+00
   0.184	 3.288E+01	 0.000E+00	 0.000E+00	 1.520E+00	 1.311E+00	 1.240E+00	-3.469E-02	-2.671E-01	 2.755E-01	 1.616E+00	 2.178E-02	 2.056E-01	 5.828E+03	 5.148E+03	 4.894E+03	 2.638E+02	 2.403E+03	-2.622E+03	 5.828E+03	 5.153E+03	 4.889E+03	 2.530E+02	 2.393E+03	-2.631E+03	-9.652E+02	-7.506E+02	 4.445E+02	 6.719E+02	 2.620E+02	 5.044E+00	 0.000E+00	 0.000E+00	 4.974E+02	 1.060E-01	 5.608E+00	 1.415E+02	 5.982E+02	 5.044E+00	 2.762E+00
   0.200	 3.288E+01	 0.000E+00	 0.000E+00	 1.775E+00	 1.540E+00	 1.447E+00	-6.131E-02	-3.242E-01	 2.959E-01	 1.621E+00	 1.591E-02	 1.907E-01	 6.172E+03	 5.415E+03	 5.206E+03	 2.589E+02	 2.592E+03	-2.896E+03	 6.172E+03	 5.420E+03	 5.201E+03	 2.474E+02	 2.582E+03	-2.906E+03	-1.056E+03	-6.117E+02	 3.710E+02	 7.176E+02	 2.179E+02	 5.044E+00	 0.000E+00	 0.000E+00	 4.980E+02	 1.060E-01	 6.081E+00	 7.392E+01	 6.128E+02	 5.044E+00	 1.443E+00
   0.213	 3.288E+01	 0.000E+00	 0.000E+00	 1.990E+00	 1.734E+00	 1.620E+00	-8.515E-02	-3.721E-01	 3.106E-01	 1.616E+00	 9.600E-03	 1.794E-01	 6.423E+03	 5.602E+03	 5.433E+03	 2.590E+02	 2.744E+03	-3.117E+03	 6.423E+03	 5.607E+03	 5.427E+03	 2.471E+02	 2.734E+03	-3.128E+03	-1.065E+03	-3.973E+02	 3.105E+02	 7.549E+02	 1.792E+02	 5.048E+00	 0.000E+00	 0.000E+00	 4.982E+02	 1.060E-01	 6.460E+00	 2.071E+01	 6.214E+02	 5.048E+00	 4.039E-01
   0.231	 3.288E+01	 0.000E+00	 0.000E+00	 2.325E+00	 2.036E+00	 1.890E+00	-1.235E-01	-4.455E-01	 3.307E-01	 1.594E+00	 1.076E-02	 1.644E-01	 6.766E+03	 5.847E+03	 5.746E+03	 2.686E+02	 2.972E+03	-3.441E+03	 6.766E+03	 5.852E+03	 5.739E+03	 2.560E+02	 2.961E+03	-3.452E+03	-9.648E+02	 1.018E+02	 2.386E+02	 8.102E+02	 1.145E+02	 5.061E+00	 0.000E+00	 0.000E+00	 4.982E+02	 1.060E-01	 7.028E+00	-4.986E+01	 6.292E+02	 5.061E+00	-9.699E-01
   0.244	 3.288E+01	 0.000E+00	 0.000E+00	 2.554E+00	 2.243E+00	 2.075E+00	-1.503E-01	-4.944E-01	 3.430E-01	 1.582E+00	 1.503E-02	 1.594E-01	 6.993E+03	 6.006E+03	 5.947E+03	 2.854E+02	 3.123E+03	-3.650E+03	 6.993E+03	 6.012E+03	 5.940E+03	 2.724E+02	 3.112E+03	-3.661E+03	-8.063E+02	 5.855E+02	 2.106E+02	 8.526E+02	 7.546E+01	 5.073E+00	 0.000E+00	 0.000E+00	 4.979E+02	 1.060E-01	 7.408E+00	-8.552E+01	 6.335E+02	 5.073E+00	-1.660E+00
   0.259	 3.288E+01	 0.000E+00	 0.000E+00	 2.844E+00	 2.507E+00	 2.308E+00	-1.842E-01	-5.540E-01	 3.571E-01	 1.573E+00	 2.386E-02	 1.602E-01	 7.286E+03	 6.215E+03	 6.203E+03	 3.194E+02	 3.311E+03	-3.894E+03	 7.286E+03	 6.221E+03	 6.196E+03	 3.059E+02	 3.299E+03	-3.905E+03	-5.019E+02	 1.381E+03	 1.981E+02	 9.091E+02	 3.254E+01	 5.092E+00	 0.000E+00	 0.000E+00	 4.973E+02	 1.060E-01	 7.885E+00	-1.113E+02	 6.385E+02	 5.092E+00	-2.152E+00
   0.272	 3.288E+01	 0.000E+00	 0.000E+00	 3.077E+00	 2.718E+00	 2.495E+00	-2.112E-01	-6.000E-01	 3.677E-01	 1.578E+00	 2.508E-02	 1.669E-01	 7.543E+03	 6.406E+03	 6.422E+03	 3.548E+02	 3.459E+03	-4.078E+03	 7.543E+03	 6.412E+03	 6.414E+03	 3.409E+02	 3.448E+03	-4.090E+03	-2.083E+02	 2.129E+03	 1.947E+02	 9.596E+02	 7.453E+00	 5.107E+00	 0.000E+00	 0.000E+00	 4.968E+02	 1.060E-01	 8.267E+00	-1.193E+02	 6.447E+02	 5.107E+00	-2.300E+00
   0.284	 3.288E+01	 0.000E+00	 0.000E+00	 3.309E+00	 2.929E+00	 2.682E+00	-2.378E-01	-6.439E-01	 3.778E-01	 1.593E+00	 2.001E-02	 1.789E-01	 7.821E+03	 6.621E+03	 6.657E+03	 3.976E+02	 3.606E+03	-4.249E+03	 7.822E+03	 6.628E+03	 6.649E+03	 3.832E+02	 3.594E+03	-4.261E+03	 1.258E+02	 2.985E+03	 1.943E+02	 1.012E+03	-9.187E+00	 5.124E+00	 0.000E+00	 0.000E+00	 4.963E+02	 1.060E-01	 8.651E+00	-1.142E+02	 6.527E+02	 5.124E+00	-2.195E+00
   0.297	 3.288E+01	 0.000E+00	 0.000E+00	 3.539E+00	 3.138E+00	 2.866E+00	-2.639E-01	-6.853E-01	 3.871E-01	 1.624E+00	 5.242E-03	 1.969E-01	 8.131E+03	 6.873E+03	 6.916E+03	 4.474E+02	 3.750E+03	-4.406E+03	 8.131E+03	 6.879E+03	 6.907E+03	 4.323E+02	 3.737E+03	-4.419E+03	 4.834E+02	 3.941E+03	 1.936E+02	 1.066E+03	-1.419E+01	 5.140E+00	 0.000E+00	 0.000E+00	 4.958E+02	 1.060E-01	 9.036E+00	-9.629E+01	 6.641E+02	 5.140E+00	-1.844E+00
   0.309	 3.288E+01	 0.000E+00	 0.000E+00	 3.767E+00	 3.344E+00	 3.048E+00	-2.893E-01	-7.238E-01	 3.956E-01	 1.669E+00	-1.798E-02	 2.196E-01	 8.470E+03	 7.161E+03	 7.199E+03	 5.031E+02	 3.889E+03	-4.548E+03	 8.471E+03	 7.168E+03	 7.191E+03	 4.875E+02	 3.876E+03	-4.561E+03	 8.446E+02	 4.981E+03	 1.919E+02	 1.119E+03	-7.839E+00	 5.156E+00	 0.000E+00	 0.000E+00	 4.955E+02	 1.060E-01	 9.422E+00	-6.653E+01	 6.787E+02	 5.156E+00	-1.270E+00
   0.325	 3.288E+01	 0.000E+00	 0.000E+00	 4.045E+00	 3.597E+00	 3.270E+00	-3.201E-01	-7.680E-01	 4.048E-01	 1.745E+00	-5.500E-02	 2.534E-01	 8.935E+03	 7.576E+03	 7.591E+03	 5.797E+02	 4.054E+03	-4.705E+03	 8.936E+03	 7.584E+03	 7.582E+03	 5.632E+02	 4.039E+03	-4.719E+03	 1.271E+03	 6.366E+03	 1.924E+02	 1.182E+03	 1.695E+01	 5.173E+00	 0.000E+00	 0.000E+00	 4.953E+02	 1.060E-01	 9.906E+00	-1.615E+01	 7.023E+02	 5.173E+00	-3.074E-01
   0.338	 3.288E+01	 0.000E+00	 0.000E+00	 4.262E+00	 3.795E+00	 3.443E+00	-3.439E-01	-7.996E-01	 4.107E-01	 1.820E+00	-8.794E-02	 2.837E-01	 9.341E+03	 7.956E+03	 7.934E+03	 6.464E+02	 4.174E+03	-4.812E+03	 9.342E+03	 7.964E+03	 7.925E+03	 6.291E+02	 4.160E+03	-4.826E+03	 1.567E+03	 7.532E+03	 2.005E+02	 1.227E+03	 5.352E+01	 5.186E+00	 0.000E+00	 0.000E+00	 4.953E+02	 1.060E-01	 1.029E+01	 3.403E+01	 7.257E+02	 5.186E+00	 6.459E-01
   0.350	 3.288E+01	 0.000E+00	 0.000E+00	 4.474E+00	 3.987E+00	 3.611E+00	-3.671E-01	-8.280E-01	 4.150E-01	 1.905E+00	-1.162E-01	 3.148E-01	 9.769E+03	 8.373E+03	 8.302E+03	 7.168E+02	 4.283E+03	-4.901E+03	 9.771E+03	 8.381E+03	 8.293E+03	 6.988E+02	 4.267E+03	-4.917E+03	 1.801E+03	 8.721E+03	 2.223E+02	 1.263E+03	 1.020E+02	 5.198E+00	 0.000E+00	 0.000E+00	 4.955E+02	 1.060E-01	 1.068E+01	 8.967E+01	 7.527E+02	 5.198E+00	 1.698E+00
   0.363	 3.288E+01	 0.000E+00	 0.000E+00	 4.679E+00	 4.174E+00	 3.775E+00	-3.897E-01	-8.531E-01	 4.176E-01	 1.997E+00	-1.371E-01	 3.452E-01	 1.021E+04	 8.821E+03	 8.687E+03	 7.901E+02	 4.377E+03	-4.976E+03	 1.021E+04	 8.829E+03	 8.677E+03	 7.712E+02	 4.360E+03	-4.992E+03	 1.957E+03	 9.915E+03	 2.630E+02	 1.291E+03	 1.644E+02	 5.208E+00	 0.000E+00	 0.000E+00	 4.960E+02	 1.060E-01	 1.107E+01	 1.484E+02	 7.827E+02	 5.208E+00	 2.806E+00
   0.381	 3.288E+01	 0.000E+00	 0.000E+00	 4.977E+00	 4.446E+00	 4.011E+00	-4.227E-01	-8.853E-01	 4.180E-01	 2.137E+00	-1.484E-01	 3.861E-01	 1.089E+04	 9.535E+03	 9.285E+03	 9.038E+02	 4.485E+03	-5.057E+03	 1.089E+04	 9.544E+03	 9.276E+03	 8.836E+02	 4.468E+03	-5.074E+03	 2.033E+03	 1.168E+04	 3.627E+02	 1.311E+03	 2.797E+02	 5.221E+00	 0.000E+00	 0.000E+00	 4.972E+02	 1.060E-01	 1.166E+01	 2.377E+02	 8.322E+02	 5.221E+00	 4.481E+00
   0.394	 3.288E+01	 0.000E+00	 0.000E+00	 5.167E+00	 4.621E+00	 4.162E+00	-4.442E-01	-9.026E-01	 4.152E-01	 2.227E+00	-1.373E-01	 4.078E-01	 1.134E+04	 1.002E+04	 9.686E+03	 9.803E+02	 4.533E+03	-5.090E+03	 1.134E+04	 1.003E+04	 9.676E+03	 9.593E+02	 4.515E+03	-5.108E+03	 1.951E+03	 1.282E+04	 4.579E+02	 1.315E+03	 3.678E+02	 5.229E+00	 0.000E+00	 0.000E+00	 4.983E+02	 1.060E-01	 1.205E+01	 2.949E+02	 8.668E+02	 5.229E+00	 5.552E+00
   0.406	 3.288E+01	 0.000E+00	 0.000E+00	 5.350E+00	 4.791E+00	 4.308E+00	-4.653E-01	-9.169E-01	 4.100E-01	 2.309E+00	-1.167E-01	 4.234E-01	 1.177E+04	 1.052E+04	 1.008E+04	 1.057E+03	 4.558E+03	-5.105E+03	 1.177E+04	 1.053E+04	 1.007E+04	 1.035E+03	 4.538E+03	-5.124E+03	 1.770E+03	 1.392E+04	 5.690E+02	 1.305E+03	 4.665E+02	 5.237E+00	 0.000E+00	 0.000E+00	 4.997E+02	 1.060E-01	 1.244E+01	 3.482E+02	 9.019E+02	 5.237E+00	 6.546E+00
   0.419	 3.288E+01	 0.000E+00	 0.000E+00	 5.527E+00	 4.956E+00	 4.449E+00	-4.862E-01	-9.283E-01	 4.023E-01	 2.379E+00	-8.503E-02	 4.326E-01	 1.218E+04	 1.099E+04	 1.045E+04	 1.131E+03	 4.564E+03	-5.107E+03	 1.219E+04	 1.100E+04	 1.045E+04	 1.108E+03	 4.543E+03	-5.126E+03	 1.494E+03	 1.499E+04	 6.893E+02	 1.295E+03	 5.651E+02	 5.245E+00	 0.000E+00	 0.000E+00	 5.013E+02	 1.060E-01	 1.284E+01	 3.965E+02	 9.359E+02	 5.245E+00	 7.443E+00
   0.431	 3.288E+01	 0.000E+00	 0.000E+00	 5.698E+00	 5.118E+00	 4.586E+00	-5.068E-01	-9.367E-01	 3.919E-01	 2.435E+00	-5.118E-02	 4.346E-01	 1.257E+04	 1.144E+04	 1.080E+04	 1.202E+03	 4.545E+03	-5.090E+03	 1.257E+04	 1.145E+04	 1.080E+04	 1.179E+03	 4.524E+03	-5.110E+03	 1.136E+03	 1.601E+04	 8.099E+02	 1.277E+03	 6.685E+02	 5.253E+00	 0.000E+00	 0.000E+00	 5.030E+02	 1.060E-01	 1.323E+01	 4.389E+02	 9.683E+02	 5.253E+00	 8.225E+00
   0.447	 3.288E+01	 0.000E+00	 0.000E+00	 5.900E+00	 5.313E+00	 4.749E+00	-5.321E-01	-9.428E-01	 3.746E-01	 2.476E+00	-6.560E-03	 4.258E-01	 1.299E+04	 1.195E+04	 1.119E+04	 1.284E+03	 4.493E+03	-5.048E+03	 1.300E+04	 1.196E+04	 1.118E+04	 1.260E+03	 4.470E+03	-5.069E+03	 5.840E+02	 1.725E+04	 9.489E+02	 1.262E+03	 7.909E+02	 5.265E+00	 0.000E+00	 0.000E+00	 5.055E+02	 1.060E-01	 1.372E+01	 4.814E+02	 1.004E+03	 5.265E+00	 9.002E+00
   0.459	 3.288E+01	 0.000E+00	 0.000E+00	 6.055E+00	 5.466E+00	 4.875E+00	-5.520E-01	-9.450E-01	 3.584E-01	 2.491E+00	 2.360E-02	 4.126E-01	 1.330E+04	 1.231E+04	 1.145E+04	 1.346E+03	 4.429E+03	-4.999E+03	 1.330E+04	 1.232E+04	 1.144E+04	 1.321E+03	 4.406E+03	-5.020E+03	 1.100E+02	 1.824E+04	 1.047E+03	 1.253E+03	 8.858E+02	 5.276E+00	 0.000E+00	 0.000E+00	 5.075E+02	 1.060E-01	 1.412E+01	 5.094E+02	 1.030E+03	 5.276E+00	 9.506E+00
   0.472	 3.288E+01	 0.000E+00	 0.000E+00	 6.203E+00	 5.615E+00	 4.996E+00	-5.715E-01	-9.445E-01	 3.397E-01	 2.487E+00	 4.959E-02	 3.938E-01	 1.356E+04	 1.263E+04	 1.168E+04	 1.402E+03	 4.348E+03	-4.937E+03	 1.356E+04	 1.264E+04	 1.167E+04	 1.377E+03	 4.325E+03	-4.959E+03	-3.795E+02	 1.923E+04	 1.131E+03	 1.252E+03	 9.735E+02	 5.288E+00	 0.000E+00	 0.000E+00	 5.097E+02	 1.060E-01	 1.452E+01	 5.313E+02	 1.051E+03	 5.288E+00	 9.892E+00
   0.484	 3.288E+01	 0.000E+00	 0.000E+00	 6.344E+00	 5.760E+00	 5.112E+00	-5.904E-01	-9.414E-01	 3.186E-01	 2.467E+00	 7.050E-02	 3.708E-01	 1.379E+04	 1.289E+04	 1.186E+04	 1.454E+03	 4.248E+03	-4.861E+03	 1.379E+04	 1.290E+04	 1.185E+04	 1.429E+03	 4.224E+03	-4.882E+03	-8.589E+02	 2.024E+04	 1.204E+03	 1.263E+03	 1.053E+03	 5.302E+00	 0.000E+00	 0.000E+00	 5.119E+02	 1.060E-01	 1.491E+01	 5.476E+02	 1.069E+03	 5.302E+00	 1.017E+01
   0.497	 3.288E+01	 0.000E+00	 0.000E+00	 6.478E+00	 5.901E+00	 5.222E+00	-6.087E-01	-9.357E-01	 2.954E-01	 2.429E+00	 8.656E-02	 3.442E-01	 1.397E+04	 1.311E+04	 1.199E+04	 1.503E+03	 4.131E+03	-4.772E+03	 1.397E+04	 1.311E+04	 1.199E+04	 1.477E+03	 4.107E+03	-4.794E+03	-1.303E+03	 2.131E+04	 1.268E+03	 1.281E+03	 1.125E+03	 5.317E+00	 0.000E+00	 0.000E+00	 5.142E+02	 1.060E-01	 1.531E+01	 5.587E+02	 1.082E+03	 5.317E+00	 1.034E+01
   0.513	 3.288E+01	 0.000E+00	 0.000E+00	 6.634E+00	 6.070E+00	 5.353E+00	-6.306E-01	-9.254E-01	 2.638E-01	 2.366E+00	 1.047E-01	 3.096E-01	 1.416E+04	 1.331E+04	 1.211E+04	 1.558E+03	 3.963E+03	-4.644E+03	 1.416E+04	 1.331E+04	 1.210E+04	 1.532E+03	 3.939E+03	-4.666E+03	-1.777E+03	 2.274E+04	 1.345E+03	 1.328E+03	 1.199E+03	 5.338E+00	 0.000E+00	 0.000E+00	 5.171E+02	 1.060E-01	 1.581E+01	 5.668E+02	 1.094E+03	 5.338E+00	 1.045E+01
   0.531	 3.288E+01	 0.000E+00	 0.000E+00	 6.804E+00	 6.262E+00	 5.496E+00	-6.551E-01	-9.081E-01	 2.223E-01	 2.268E+00	 1.239E-01	 2.680E-01	 1.433E+04	 1.345E+04	 1.218E+04	 1.619E+03	 3.731E+03	-4.467E+03	 1.433E+04	 1.346E+04	 1.217E+04	 1.592E+03	 3.706E+03	-4.489E+03	-2.178E+03	 2.464E+04	 1.440E+03	 1.405E+03	 1.266E+03	 5.365E+00	 0.000E+00	 0.000E+00	 5.207E+02	 1.060E-01	 1.641E+01	 5.685E+02	 1.101E+03	 5.365E+00	 1.043E+01
   0.547	 3.288E+01	 0.000E+00	 0.000E+00	 6.929E+00	 6.407E+00	 5.601E+00	-6.736E-01	-8.892E-01	 1.849E-01	 2.173E+00	 1.304E-01	 2.364E-01	 1.441E+04	 1.351E+04	 1.218E+04	 1.665E+03	 3.511E+03	-4.299E+03	 1.441E+04	 1.351E+04	 1.217E+04	 1.638E+03	 3.486E+03	-4.321E+03	-2.297E+03	 2.646E+04	 1.525E+03	 1.479E+03	 1.315E+03	 5.389E+00	 0.000E+00	 0.000E+00	 5.236E+02	 1.060E-01	 1.692E+01	 5.635E+02	 1.102E+03	 5.389E+00	 1.029E+01
   0.559	 3.288E+01	 0.000E+00	 0.000E+00	 7.019E+00	 6.516E+00	 5.678E+00	-6.872E-01	-8.721E-01	 1.541E-01	 2.099E+00	 1.374E-01	 2.159E-01	 1.447E+04	 1.352E+04	 1.217E+04	 1.698E+03	 3.328E+03	-4.158E+03	 1.447E+04	 1.353E+04	 1.216E+04	 1.671E+03	 3.303E+03	-4.181E+03	-2.280E+03	 2.805E+04	 1.595E+03	 1.548E+03	 1.339E+03	 5.408E+00	 0.000E+00	 0.000E+00	 5.258E+02	 1.060E-01	 1.732E+01	 5.572E+02	 1.102E+03	 5.408E+00	 1.014E+01
   0.575	 3.288E+01	 0.000E+00	 0.000E+00	 7.120E+00	 6.640E+00	 5.763E+00	-7.026E-01	-8.482E-01	 1.147E-01	 2.009E+00	 1.380E-01	 1.960E-01	 1.453E+04	 1.353E+04	 1.215E+04	 1.737E+03	 3.090E+03	-3.974E+03	 1.453E+04	 1.353E+04	 1.214E+04	 1.711E+03	 3.065E+03	-3.996E+03	-2.110E+03	 3.022E+04	 1.682E+03	 1.635E+03	 1.362E+03	 5.433E+00	 0.000E+00	 0.000E+00	 5.286E+02	 1.060E-01	 1.783E+01	 5.464E+02	 1.100E+03	 5.433E+00	 9.901E+00
   0.594	 3.288E+01	 0.000E+00	 0.000E+00	 7.221E+00	 6.769E+00	 5.847E+00	-7.184E-01	-8.157E-01	 6.663E-02	 1.905E+00	 1.109E-01	 1.806E-01	 1.458E+04	 1.353E+04	 1.209E+04	 1.776E+03	 2.790E+03	-3.737E+03	 1.458E+04	 1.353E+04	 1.209E+04	 1.749E+03	 2.765E+03	-3.759E+03	-1.687E+03	 3.312E+04	 1.777E+03	 1.728E+03	 1.405E+03	 5.463E+00	 0.000E+00	 0.000E+00	 5.319E+02	 1.060E-01	 1.844E+01	 5.296E+02	 1.097E+03	 5.463E+00	 9.543E+00
   0.606	 3.288E+01	 0.000E+00	 0.000E+00	 7.274E+00	 6.841E+00	 5.891E+00	-7.271E-01	-7.918E-01	 3.461E-02	 1.848E+00	 8.855E-02	 1.782E-01	 1.461E+04	 1.353E+04	 1.207E+04	 1.798E+03	 2.591E+03	-3.578E+03	 1.461E+04	 1.353E+04	 1.207E+04	 1.771E+03	 2.566E+03	-3.600E+03	-1.285E+03	 3.524E+04	 1.832E+03	 1.783E+03	 1.421E+03	 5.482E+00	 0.000E+00	 0.000E+00	 5.340E+02	 1.060E-01	 1.885E+01	 5.162E+02	 1.097E+03	 5.482E+00	 9.270E+00
   0.622	 3.288E+01	 0.000E+00	 0.000E+00	 7.326E+00	 6.913E+00	 5.931E+00	-7.353E-01	-7.595E-01	-4.681E-03	 1.784E+00	 3.685E-02	 1.814E-01	 1.465E+04	 1.355E+04	 1.205E+04	 1.815E+03	 2.338E+03	-3.371E+03	 1.465E+04	 1.356E+04	 1.204E+04	 1.788E+03	 2.313E+03	-3.393E+03	-6.783E+02	 3.809E+04	 1.890E+03	 1.829E+03	 1.467E+03	 5.506E+00	 0.000E+00	 0.000E+00	 5.366E+02	 1.060E-01	 1.937E+01	 4.978E+02	 1.098E+03	 5.506E+00	 8.899E+00
   0.638	 3.288E+01	 0.000E+00	 0.000E+00	 7.365E+00	 6.971E+00	 5.961E+00	-7.415E-01	-7.257E-01	-4.276E-02	 1.732E+00	-1.014E-02	 1.898E-01	 1.469E+04	 1.360E+04	 1.205E+04	 1.831E+03	 2.090E+03	-3.166E+03	 1.469E+04	 1.360E+04	 1.204E+04	 1.804E+03	 2.064E+03	-3.188E+03	-3.654E+01	 4.108E+04	 1.946E+03	 1.853E+03	 1.505E+03	 5.530E+00	 0.000E+00	 0.000E+00	 5.390E+02	 1.060E-01	 1.989E+01	 4.784E+02	 1.102E+03	 5.530E+00	 8.516E+00
   0.656	 3.288E+01	 0.000E+00	 0.000E+00	 7.392E+00	 7.016E+00	 5.978E+00	-7.452E-01	-6.826E-01	-8.603E-02	 1.680E+00	-7.432E-02	 2.049E-01	 1.474E+04	 1.370E+04	 1.206E+04	 1.841E+03	 1.796E+03	-2.920E+03	 1.474E+04	 1.370E+04	 1.206E+04	 1.814E+03	 1.771E+03	-2.943E+03	 7.521E+02	 4.484E+04	 2.018E+03	 1.845E+03	 1.578E+03	 5.558E+00	 0.000E+00	 0.000E+00	 5.418E+02	 1.060E-01	 2.051E+01	 4.541E+02	 1.110E+03	 5.558E+00	 8.042E+00
   0.669	 3.288E+01	 0.000E+00	 0.000E+00	 7.398E+00	 7.031E+00	 5.980E+00	-7.452E-01	-6.526E-01	-1.128E-01	 1.651E+00	-1.159E-01	 2.164E-01	 1.477E+04	 1.379E+04	 1.208E+04	 1.840E+03	 1.608E+03	-2.759E+03	 1.477E+04	 1.379E+04	 1.208E+04	 1.813E+03	 1.582E+03	-2.781E+03	 1.244E+03	 4.744E+04	 2.075E+03	 1.816E+03	 1.648E+03	 5.576E+00	 0.000E+00	 0.000E+00	 5.435E+02	 1.060E-01	 2.093E+01	 4.376E+02	 1.118E+03	 5.576E+00	 7.726E+00
   0.684	 3.288E+01	 0.000E+00	 0.000E+00	 7.392E+00	 7.032E+00	 5.969E+00	-7.421E-01	-6.141E-01	-1.429E-01	 1.616E+00	-1.507E-01	 2.299E-01	 1.479E+04	 1.393E+04	 1.212E+04	 1.837E+03	 1.381E+03	-2.563E+03	 1.480E+04	 1.394E+04	 1.212E+04	 1.809E+03	 1.355E+03	-2.586E+03	 1.763E+03	 5.075E+04	 2.167E+03	 1.742E+03	 1.749E+03	 5.598E+00	 3.964E+01	 7.500E-01	 5.455E+02	 1.060E-01	 2.145E+01	 4.175E+02	 1.130E+03	 5.598E+00	 7.342E+00
   0.700	 3.288E+01	 0.000E+00	 0.000E+00	 7.375E+00	 7.020E+00	 5.951E+00	-7.366E-01	-5.752E-01	-1.702E-01	 1.579E+00	-1.755E-01	 2.405E-01	 1.481E+04	 1.409E+04	 1.216E+04	 1.829E+03	 1.163E+03	-2.372E+03	 1.481E+04	 1.409E+04	 1.216E+04	 1.802E+03	 1.136E+03	-2.395E+03	 2.174E+03	 5.408E+04	 2.272E+03	 1.647E+03	 1.867E+03	 5.619E+00	 9.304E+01	 1.750E+00	 5.472E+02	 1.060E-01	 2.198E+01	 4.000E+02	 1.144E+03	 5.619E+00	 7.009E+00
   0.719	 3.288E+01	 0.000E+00	 0.000E+00	 7.338E+00	 6.986E+00	 5.917E+00	-7.264E-01	-5.285E-01	-1.981E-01	 1.528E+00	-1.812E-01	 2.488E-01	 1.481E+04	 1.428E+04	 1.220E+04	 1.818E+03	 9.229E+02	-2.159E+03	 1.481E+04	 1.428E+04	 1.219E+04	 1.790E+03	 8.965E+02	-2.182E+03	 2.470E+03	 5.808E+04	 2.416E+03	 1.524E+03	 2.012E+03	 5.642E+00	 1.466E+02	 2.750E+00	 5.488E+02	 1.060E-01	 2.261E+01	 3.847E+02	 1.162E+03	 5.642E+00	 6.713E+00
   0.731	 3.288E+01	 0.000E+00	 0.000E+00	 7.304E+00	 6.951E+00	 5.888E+00	-7.174E-01	-4.980E-01	-2.134E-01	 1.485E+00	-1.819E-01	 2.490E-01	 1.479E+04	 1.440E+04	 1.221E+04	 1.807E+03	 7.773E+02	-2.024E+03	 1.479E+04	 1.440E+04	 1.220E+04	 1.779E+03	 7.506E+02	-2.046E+03	 2.522E+03	 6.074E+04	 2.514E+03	 1.430E+03	 2.126E+03	 5.655E+00	 1.869E+02	 3.500E+00	 5.495E+02	 1.060E-01	 2.303E+01	 3.792E+02	 1.174E+03	 5.655E+00	 6.600E+00
   0.747	 3.288E+01	 0.000E+00	 0.000E+00	 7.250E+00	 6.897E+00	 5.844E+00	-7.042E-01	-4.615E-01	-2.285E-01	 1.418E+00	-1.598E-01	 2.434E-01	 1.474E+04	 1.451E+04	 1.220E+04	 1.795E+03	 6.169E+02	-1.873E+03	 1.474E+04	 1.451E+04	 1.220E+04	 1.768E+03	 5.901E+02	-1.895E+03	 2.404E+03	 6.402E+04	 2.629E+03	 1.323E+03	 2.237E+03	 5.670E+00	 2.407E+02	 4.500E+00	 5.502E+02	 1.060E-01	 2.356E+01	 3.785E+02	 1.186E+03	 5.670E+00	 6.572E+00
   0.763	 3.288E+01	 0.000E+00	 0.000E+00	 7.188E+00	 6.834E+00	 5.796E+00	-6.900E-01	-4.272E-01	-2.406E-01	 1.338E+00	-1.449E-01	 2.320E-01	 1.467E+04	 1.459E+04	 1.217E+04	 1.782E+03	 4.752E+02	-1.733E+03	 1.468E+04	 1.459E+04	 1.216E+04	 1.755E+03	 4.482E+02	-1.755E+03	 2.157E+03	 6.727E+04	 2.727E+03	 1.227E+03	 2.353E+03	 5.682E+00	 2.948E+02	 5.500E+00	 5.507E+02	 1.060E-01	 2.410E+01	 3.825E+02	 1.197E+03	 5.682E+00	 6.628E+00
   0.781	 3.288E+01	 0.000E+00	 0.000E+00	 7.102E+00	 6.748E+00	 5.731E+00	-6.718E-01	-3.902E-01	-2.507E-01	 1.223E+00	-1.154E-01	 2.107E-01	 1.456E+04	 1.461E+04	 1.209E+04	 1.769E+03	 3.342E+02	-1.587E+03	 1.457E+04	 1.461E+04	 1.209E+04	 1.742E+03	 3.072E+02	-1.609E+03	 1.671E+03	 7.112E+04	 2.812E+03	 1.140E+03	 2.447E+03	 5.692E+00	 3.404E+02	 6.347E+00	 5.509E+02	 1.060E-01	 2.474E+01	 3.945E+02	 1.207E+03	 5.692E+00	 6.824E+00
   0.794	 3.288E+01	 0.000E+00	 0.000E+00	 7.037E+00	 6.684E+00	 5.684E+00	-6.597E-01	-3.692E-01	-2.548E-01	 1.132E+00	-8.705E-02	 1.916E-01	 1.447E+04	 1.456E+04	 1.202E+04	 1.762E+03	 2.606E+02	-1.507E+03	 1.447E+04	 1.456E+04	 1.202E+04	 1.736E+03	 2.337E+02	-1.529E+03	 1.253E+03	 7.365E+04	 2.842E+03	 1.101E+03	 2.470E+03	 5.697E+00	 3.495E+02	 6.515E+00	 5.510E+02	 1.060E-01	 2.516E+01	 4.060E+02	 1.210E+03	 5.697E+00	 7.017E+00
   0.809	 3.288E+01	 0.000E+00	 0.000E+00	 6.949E+00	 6.598E+00	 5.621E+00	-6.455E-01	-3.483E-01	-2.573E-01	 1.005E+00	-6.180E-02	 1.635E-01	 1.433E+04	 1.443E+04	 1.190E+04	 1.755E+03	 1.949E+02	-1.427E+03	 1.433E+04	 1.443E+04	 1.190E+04	 1.729E+03	 1.682E+02	-1.449E+03	 6.638E+02	 7.679E+04	 2.842E+03	 1.088E+03	 2.470E+03	 5.700E+00	 3.585E+02	 6.681E+00	 5.512E+02	 1.060E-01	 2.570E+01	 4.220E+02	 1.212E+03	 5.700E+00	 7.288E+00
   0.825	 3.288E+01	 0.000E+00	 0.000E+00	 6.855E+00	 6.508E+00	 5.555E+00	-6.325E-01	-3.321E-01	-2.582E-01	 8.688E-01	-3.371E-02	 1.330E-01	 1.417E+04	 1.425E+04	 1.177E+04	 1.750E+03	 1.498E+02	-1.366E+03	 1.418E+04	 1.425E+04	 1.176E+04	 1.724E+03	 1.234E+02	-1.388E+03	 7.087E+01	 7.991E+04	 2.815E+03	 1.099E+03	 2.428E+03	 5.703E+00	 3.760E+02	 7.004E+00	 5.514E+02	 1.060E-01	 2.623E+01	 4.378E+02	 1.211E+03	 5.703E+00	 7.558E+00
   0.844	 3.288E+01	 0.000E+00	 0.000E+00	 6.733E+00	 6.392E+00	 5.471E+00	-6.192E-01	-3.206E-01	-2.566E-01	 6.882E-01	 4.486E-04	 9.253E-02	 1.396E+04	 1.394E+04	 1.158E+04	 1.749E+03	 1.261E+02	-1.321E+03	 1.396E+04	 1.394E+04	 1.158E+04	 1.723E+03	 1.003E+02	-1.342E+03	-6.073E+02	 8.364E+04	 2.742E+03	 1.147E+03	 2.314E+03	 5.705E+00	 3.845E+02	 7.161E+00	 5.516E+02	 1.060E-01	 2.687E+01	 4.568E+02	 1.204E+03	 5.705E+00	 7.883E+00
   0.856	 3.288E+01	 0.000E+00	 0.000E+00	 6.648E+00	 6.311E+00	 5.411E+00	-6.122E-01	-3.183E-01	-2.541E-01	 5.656E-01	 1.605E-02	 6.562E-02	 1.382E+04	 1.370E+04	 1.144E+04	 1.750E+03	 1.324E+02	-1.309E+03	 1.382E+04	 1.370E+04	 1.144E+04	 1.725E+03	 1.071E+02	-1.330E+03	-9.920E+02	 8.614E+04	 2.669E+03	 1.204E+03	 2.207E+03	 5.707E+00	 3.929E+02	 7.314E+00	 5.517E+02	 1.060E-01	 2.730E+01	 4.694E+02	 1.199E+03	 5.707E+00	 8.099E+00
   0.872	 3.288E+01	 0.000E+00	 0.000E+00	 6.536E+00	 6.204E+00	 5.334E+00	-6.059E-01	-3.219E-01	-2.491E-01	 4.037E-01	 3.335E-02	 3.099E-02	 1.362E+04	 1.334E+04	 1.126E+04	 1.757E+03	 1.665E+02	-1.317E+03	 1.362E+04	 1.334E+04	 1.126E+04	 1.732E+03	 1.418E+02	-1.338E+03	-1.340E+03	 8.927E+04	 2.555E+03	 1.293E+03	 2.035E+03	 5.711E+00	 4.010E+02	 7.464E+00	 5.520E+02	 1.060E-01	 2.784E+01	 4.866E+02	 1.189E+03	 5.711E+00	 8.389E+00
   0.888	 3.288E+01	 0.000E+00	 0.000E+00	 6.421E+00	 6.092E+00	 5.255E+00	-6.012E-01	-3.299E-01	-2.426E-01	 2.465E-01	 4.527E-02	-1.535E-03	 1.343E+04	 1.296E+04	 1.109E+04	 1.765E+03	 2.221E+02	-1.341E+03	 1.343E+04	 1.296E+04	 1.109E+04	 1.741E+03	 1.981E+02	-1.361E+03	-1.555E+03	 9.242E+04	 2.427E+03	 1.390E+03	 1.841E+03	 5.717E+00	 4.169E+02	 7.754E+00	 5.523E+02	 1.060E-01	 2.837E+01	 5.065E+02	 1.180E+03	 5.717E+00	 8.722E+00
   0.906	 3.288E+01	 0.000E+00	 0.000E+00	 6.279E+00	 5.951E+00	 5.155E+00	-5.981E-01	-3.463E-01	-2.320E-01	 5.730E-02	 4.715E-02	-3.927E-02	 1.320E+04	 1.249E+04	 1.089E+04	 1.783E+03	 3.235E+02	-1.396E+03	 1.320E+04	 1.249E+04	 1.089E+04	 1.759E+03	 3.004E+02	-1.416E+03	-1.584E+03	 9.624E+04	 2.252E+03	 1.510E+03	 1.584E+03	 5.727E+00	 4.245E+02	 7.892E+00	 5.526E+02	 1.060E-01	 2.902E+01	 5.367E+02	 1.169E+03	 5.727E+00	 9.225E+00
   0.919	 3.288E+01	 0.000E+00	 0.000E+00	 6.183E+00	 5.852E+00	 5.087E+00	-5.972E-01	-3.609E-01	-2.228E-01	-6.765E-02	 3.899E-02	-6.301E-02	 1.304E+04	 1.218E+04	 1.076E+04	 1.799E+03	 4.135E+02	-1.448E+03	 1.304E+04	 1.218E+04	 1.075E+04	 1.775E+03	 3.910E+02	-1.468E+03	-1.445E+03	 9.881E+04	 2.125E+03	 1.589E+03	 1.405E+03	 5.737E+00	 4.319E+02	 8.027E+00	 5.530E+02	 1.060E-01	 2.945E+01	 5.628E+02	 1.161E+03	 5.737E+00	 9.656E+00
   0.934	 3.288E+01	 0.000E+00	 0.000E+00	 6.061E+00	 5.723E+00	 5.000E+00	-5.970E-01	-3.826E-01	-2.081E-01	-2.149E-01	 2.038E-02	-8.966E-02	 1.285E+04	 1.180E+04	 1.062E+04	 1.823E+03	 5.531E+02	-1.532E+03	 1.285E+04	 1.180E+04	 1.061E+04	 1.800E+03	 5.313E+02	-1.552E+03	-1.091E+03	 1.021E+05	 1.955E+03	 1.671E+03	 1.182E+03	 5.753E+00	 4.392E+02	 8.157E+00	 5.535E+02	 1.060E-01	 2.999E+01	 6.045E+02	 1.153E+03	 5.753E+00	 1.034E+01
   0.950	 3.288E+01	 0.000E+00	 0.000E+00	 5.938E+00	 5.589E+00	 4.911E+00	-5.969E-01	-4.059E-01	-1.908E-01	-3.578E-01	-5.668E-03	-1.146E-01	 1.266E+04	 1.144E+04	 1.048E+04	 1.852E+03	 7.113E+02	-1.629E+03	 1.267E+04	 1.145E+04	 1.048E+04	 1.829E+03	 6.901E+02	-1.649E+03	-6.208E+02	 1.053E+05	 1.782E+03	 1.735E+03	 9.694E+02	 5.770E+00	 4.532E+02	 8.405E+00	 5.542E+02	 1.060E-01	 3.053E+01	 6.539E+02	 1.147E+03	 5.770E+00	 1.116E+01
   0.969	 3.288E+01	 0.000E+00	 0.000E+00	 5.792E+00	 5.422E+00	 4.804E+00	-5.966E-01	-4.357E-01	-1.655E-01	-5.212E-01	-4.669E-02	-1.412E-01	 1.245E+04	 1.105E+04	 1.034E+04	 1.891E+03	 9.283E+02	-1.764E+03	 1.245E+04	 1.105E+04	 1.034E+04	 1.867E+03	 9.079E+02	-1.784E+03	 9.669E+01	 1.093E+05	 1.571E+03	 1.788E+03	 7.316E+02	 5.793E+00	 4.600E+02	 8.523E+00	 5.553E+02	 1.060E-01	 3.118E+01	 7.251E+02	 1.142E+03	 5.793E+00	 1.232E+01
   0.981	 3.288E+01	 0.000E+00	 0.000E+00	 5.696E+00	 5.307E+00	 4.732E+00	-5.958E-01	-4.561E-01	-1.454E-01	-6.231E-01	-7.400E-02	-1.567E-01	 1.231E+04	 1.083E+04	 1.027E+04	 1.920E+03	 1.088E+03	-1.868E+03	 1.231E+04	 1.083E+04	 1.026E+04	 1.897E+03	 1.068E+03	-1.887E+03	 6.327E+02	 1.120E+05	 1.432E+03	 1.796E+03	 5.893E+02	 5.809E+00	 4.667E+02	 8.636E+00	 5.562E+02	 1.060E-01	 3.161E+01	 7.791E+02	 1.140E+03	 5.809E+00	 1.320E+01
   0.997	 3.288E+01	 0.000E+00	 0.000E+00	 5.578E+00	 5.160E+00	 4.643E+00	-5.937E-01	-4.812E-01	-1.166E-01	-7.439E-01	-1.095E-01	-1.735E-01	 1.214E+04	 1.058E+04	 1.018E+04	 1.957E+03	 1.300E+03	-2.009E+03	 1.214E+04	 1.058E+04	 1.018E+04	 1.935E+03	 1.281E+03	-2.028E+03	 1.310E+03	 1.154E+05	 1.263E+03	 1.787E+03	 4.358E+02	 5.828E+00	 4.733E+02	 8.744E+00	 5.577E+02	 1.060E-01	 3.216E+01	 8.512E+02	 1.140E+03	 5.828E+00	 1.438E+01
   1.012	 3.288E+01	 0.000E+00	 0.000E+00	 5.462E+00	 5.011E+00	 4.555E+00	-5.906E-01	-5.054E-01	-8.515E-02	-8.589E-01	-1.372E-01	-1.883E-01	 1.197E+04	 1.036E+04	 1.011E+04	 1.996E+03	 1.518E+03	-2.162E+03	 1.197E+04	 1.036E+04	 1.011E+04	 1.973E+03	 1.499E+03	-2.181E+03	 1.940E+03	 1.187E+05	 1.101E+03	 1.757E+03	 2.991E+02	 5.847E+00	 4.862E+02	 8.947E+00	 5.594E+02	 1.060E-01	 3.270E+01	 9.232E+02	 1.141E+03	 5.847E+00	 1.554E+01
   1.025	 3.288E+01	 0.000E+00	 0.000E+00	 5.373E+00	 4.892E+00	 4.487E+00	-5.872E-01	-5.239E-01	-5.768E-02	-9.469E-01	-1.550E-01	-1.984E-01	 1.184E+04	 1.020E+04	 1.006E+04	 2.025E+03	 1.695E+03	-2.291E+03	 1.184E+04	 1.021E+04	 1.005E+04	 2.003E+03	 1.676E+03	-2.310E+03	 2.379E+03	 1.215E+05	 9.783E+02	 1.720E+03	 2.074E+02	 5.860E+00	 4.926E+02	 9.041E+00	 5.610E+02	 1.060E-01	 3.314E+01	 9.789E+02	 1.143E+03	 5.860E+00	 1.645E+01
   1.044	 3.288E+01	 0.000E+00	 0.000E+00	 5.243E+00	 4.713E+00	 4.387E+00	-5.809E-01	-5.498E-01	-1.369E-02	-1.073E+00	-1.705E-01	-2.112E-01	 1.165E+04	 1.000E+04	 9.982E+03	 2.068E+03	 1.957E+03	-2.497E+03	 1.165E+04	 1.001E+04	 9.977E+03	 2.046E+03	 1.938E+03	-2.515E+03	 2.890E+03	 1.255E+05	 8.076E+02	 1.653E+03	 9.299E+01	 5.877E+00	 4.989E+02	 9.132E+00	 5.636E+02	 1.060E-01	 3.380E+01	 1.054E+03	 1.146E+03	 5.877E+00	 1.766E+01
   1.059	 3.288E+01	 0.000E+00	 0.000E+00	 5.142E+00	 4.567E+00	 4.308E+00	-5.744E-01	-5.690E-01	 2.531E-02	-1.174E+00	-1.650E-01	-2.194E-01	 1.149E+04	 9.853E+03	 9.922E+03	 2.100E+03	 2.164E+03	-2.680E+03	 1.150E+04	 9.857E+03	 9.917E+03	 2.079E+03	 2.146E+03	-2.698E+03	 3.099E+03	 1.289E+05	 6.828E+02	 1.589E+03	 1.546E+01	 5.889E+00	 5.051E+02	 9.217E+00	 5.661E+02	 1.060E-01	 3.435E+01	 1.102E+03	 1.150E+03	 5.889E+00	 1.842E+01
   1.075	 3.288E+01	 0.000E+00	 0.000E+00	 5.044E+00	 4.424E+00	 4.233E+00	-5.676E-01	-5.866E-01	 6.490E-02	-1.272E+00	-1.468E-01	-2.261E-01	 1.134E+04	 9.709E+03	 9.862E+03	 2.130E+03	 2.358E+03	-2.866E+03	 1.135E+04	 9.713E+03	 9.856E+03	 2.109E+03	 2.340E+03	-2.884E+03	 3.159E+03	 1.323E+05	 5.693E+02	 1.528E+03	-5.736E+01	 5.899E+00	 5.174E+02	 9.375E+00	 5.687E+02	 1.060E-01	 3.491E+01	 1.136E+03	 1.153E+03	 5.899E+00	 1.896E+01
   1.088	 3.288E+01	 0.000E+00	 0.000E+00	 4.971E+00	 4.313E+00	 4.176E+00	-5.619E-01	-5.992E-01	 9.685E-02	-1.349E+00	-1.217E-01	-2.306E-01	 1.123E+04	 9.597E+03	 9.812E+03	 2.151E+03	 2.500E+03	-3.020E+03	 1.123E+04	 9.602E+03	 9.807E+03	 2.130E+03	 2.483E+03	-3.038E+03	 3.067E+03	 1.350E+05	 4.887E+02	 1.483E+03	-1.108E+02	 5.905E+00	 5.233E+02	 9.448E+00	 5.709E+02	 1.060E-01	 3.535E+01	 1.150E+03	 1.155E+03	 5.905E+00	 1.918E+01
   1.106	 3.288E+01	 0.000E+00	 0.000E+00	 4.868E+00	 4.153E+00	 4.096E+00	-5.536E-01	-6.157E-01	 1.442E-01	-1.462E+00	-7.048E-02	-2.361E-01	 1.107E+04	 9.421E+03	 9.734E+03	 2.178E+03	 2.690E+03	-3.251E+03	 1.107E+04	 9.426E+03	 9.728E+03	 2.158E+03	 2.672E+03	-3.269E+03	 2.745E+03	 1.389E+05	 3.812E+02	 1.433E+03	-1.942E+02	 5.914E+00	 5.291E+02	 9.516E+00	 5.742E+02	 1.060E-01	 3.601E+01	 1.151E+03	 1.157E+03	 5.914E+00	 1.916E+01
   1.122	 3.288E+01	 0.000E+00	 0.000E+00	 4.791E+00	 4.030E+00	 4.035E+00	-5.471E-01	-6.266E-01	 1.822E-01	-1.555E+00	-1.489E-02	-2.401E-01	 1.095E+04	 9.265E+03	 9.666E+03	 2.198E+03	 2.817E+03	-3.443E+03	 1.095E+04	 9.270E+03	 9.659E+03	 2.177E+03	 2.800E+03	-3.461E+03	 2.306E+03	 1.422E+05	 3.061E+02	 1.413E+03	-2.707E+02	 5.920E+00	 5.347E+02	 9.581E+00	 5.768E+02	 1.060E-01	 3.657E+01	 1.127E+03	 1.158E+03	 5.920E+00	 1.874E+01
   1.137	 3.288E+01	 0.000E+00	 0.000E+00	 4.719E+00	 3.913E+00	 3.978E+00	-5.414E-01	-6.356E-01	 2.184E-01	-1.646E+00	 4.404E-02	-2.440E-01	 1.083E+04	 9.096E+03	 9.596E+03	 2.216E+03	 2.923E+03	-3.630E+03	 1.084E+04	 9.101E+03	 9.589E+03	 2.196E+03	 2.906E+03	-3.647E+03	 1.815E+03	 1.453E+05	 2.386E+02	 1.414E+03	-3.588E+02	 5.927E+00	 5.453E+02	 9.698E+00	 5.793E+02	 1.060E-01	 3.712E+01	 1.091E+03	 1.158E+03	 5.927E+00	 1.811E+01
   1.150	 3.288E+01	 0.000E+00	 0.000E+00	 4.666E+00	 3.826E+00	 3.937E+00	-5.374E-01	-6.409E-01	 2.455E-01	-1.719E+00	 9.280E-02	-2.474E-01	 1.075E+04	 8.950E+03	 9.539E+03	 2.230E+03	 2.987E+03	-3.773E+03	 1.076E+04	 8.955E+03	 9.532E+03	 2.210E+03	 2.970E+03	-3.790E+03	 1.396E+03	 1.478E+05	 1.917E+02	 1.432E+03	-4.388E+02	 5.933E+00	 5.501E+02	 9.751E+00	 5.811E+02	 1.060E-01	 3.757E+01	 1.051E+03	 1.157E+03	 5.933E+00	 1.743E+01
   1.169	 3.288E+01	 0.000E+00	 0.000E+00	 4.595E+00	 3.705E+00	 3.880E+00	-5.328E-01	-6.459E-01	 2.829E-01	-1.828E+00	 1.619E-01	-2.545E-01	 1.065E+04	 8.726E+03	 9.455E+03	 2.251E+03	 3.055E+03	-3.973E+03	 1.065E+04	 8.731E+03	 9.447E+03	 2.231E+03	 3.039E+03	-3.990E+03	 7.975E+02	 1.513E+05	 1.316E+02	 1.480E+03	-5.648E+02	 5.944E+00	 5.546E+02	 9.801E+00	 5.835E+02	 1.060E-01	 3.824E+01	 9.795E+02	 1.156E+03	 5.944E+00	 1.622E+01
   1.184	 3.288E+01	 0.000E+00	 0.000E+00	 4.545E+00	 3.616E+00	 3.839E+00	-5.304E-01	-6.464E-01	 3.096E-01	-1.917E+00	 2.109E-01	-2.625E-01	 1.058E+04	 8.528E+03	 9.388E+03	 2.271E+03	 3.078E+03	-4.118E+03	 1.059E+04	 8.533E+03	 9.380E+03	 2.251E+03	 3.062E+03	-4.135E+03	 4.112E+02	 1.541E+05	 9.435E+01	 1.550E+03	-6.854E+02	 5.955E+00	 5.588E+02	 9.847E+00	 5.851E+02	 1.060E-01	 3.880E+01	 9.123E+02	 1.154E+03	 5.955E+00	 1.508E+01
   1.200	 3.288E+01	 0.000E+00	 0.000E+00	 4.501E+00	 3.535E+00	 3.802E+00	-5.291E-01	-6.443E-01	 3.332E-01	-2.006E+00	 2.511E-01	-2.726E-01	 1.053E+04	 8.331E+03	 9.326E+03	 2.293E+03	 3.080E+03	-4.245E+03	 1.054E+04	 8.337E+03	 9.319E+03	 2.273E+03	 3.065E+03	-4.262E+03	 1.484E+02	 1.567E+05	 6.608E+01	 1.631E+03	-8.096E+02	 5.967E+00	 5.661E+02	 9.930E+00	 5.864E+02	 1.060E-01	 3.935E+01	 8.450E+02	 1.153E+03	 5.967E+00	 1.394E+01
   1.219	 3.288E+01	 0.000E+00	 0.000E+00	 4.457E+00	 3.448E+00	 3.764E+00	-5.291E-01	-6.377E-01	 3.563E-01	-2.111E+00	 2.816E-01	-2.887E-01	 1.049E+04	 8.109E+03	 9.261E+03	 2.323E+03	 3.053E+03	-4.367E+03	 1.049E+04	 8.114E+03	 9.253E+03	 2.304E+03	 3.038E+03	-4.384E+03	 5.701E+01	 1.597E+05	 4.721E+01	 1.743E+03	-9.556E+02	 5.982E+00	 5.691E+02	 9.966E+00	 5.875E+02	 1.060E-01	 4.003E+01	 7.664E+02	 1.152E+03	 5.982E+00	 1.261E+01
   1.234	 3.288E+01	 0.000E+00	 0.000E+00	 4.430E+00	 3.386E+00	 3.738E+00	-5.308E-01	-6.279E-01	 3.698E-01	-2.194E+00	 2.899E-01	-3.056E-01	 1.048E+04	 7.939E+03	 9.222E+03	 2.354E+03	 3.000E+03	-4.434E+03	 1.048E+04	 7.945E+03	 9.214E+03	 2.335E+03	 2.986E+03	-4.451E+03	 2.388E+02	 1.619E+05	 4.705E+01	 1.846E+03	-1.077E+03	 5.995E+00	 5.718E+02	 1.000E+01	 5.881E+02	 1.060E-01	 4.059E+01	 7.084E+02	 1.153E+03	 5.995E+00	 1.163E+01
   1.250	 3.288E+01	 0.000E+00	 0.000E+00	 4.409E+00	 3.330E+00	 3.715E+00	-5.335E-01	-6.154E-01	 3.797E-01	-2.275E+00	 2.861E-01	-3.244E-01	 1.048E+04	 7.789E+03	 9.194E+03	 2.389E+03	 2.931E+03	-4.478E+03	 1.049E+04	 7.795E+03	 9.186E+03	 2.369E+03	 2.917E+03	-4.495E+03	 5.778E+02	 1.640E+05	 5.572E+01	 1.949E+03	-1.192E+03	 6.008E+00	 5.762E+02	 1.006E+01	 5.884E+02	 1.060E-01	 4.115E+01	 6.572E+02	 1.155E+03	 6.008E+00	 1.077E+01
   1.263	 3.288E+01	 0.000E+00	 0.000E+00	 4.398E+00	 3.292E+00	 3.701E+00	-5.365E-01	-6.028E-01	 3.841E-01	-2.337E+00	 2.705E-01	-3.415E-01	 1.050E+04	 7.691E+03	 9.181E+03	 2.419E+03	 2.861E+03	-4.491E+03	 1.050E+04	 7.696E+03	 9.172E+03	 2.400E+03	 2.847E+03	-4.508E+03	 9.877E+02	 1.656E+05	 7.035E+01	 2.030E+03	-1.272E+03	 6.018E+00	 5.779E+02	 1.008E+01	 5.885E+02	 1.060E-01	 4.160E+01	 6.232E+02	 1.158E+03	 6.018E+00	 1.019E+01
   1.281	 3.288E+01	 0.000E+00	 0.000E+00	 4.389E+00	 3.241E+00	 3.684E+00	-5.426E-01	-5.805E-01	 3.853E-01	-2.423E+00	 2.340E-01	-3.683E-01	 1.054E+04	 7.574E+03	 9.180E+03	 2.470E+03	 2.734E+03	-4.478E+03	 1.054E+04	 7.580E+03	 9.172E+03	 2.450E+03	 2.720E+03	-4.495E+03	 1.767E+03	 1.678E+05	 1.022E+02	 2.144E+03	-1.380E+03	 6.030E+00	 5.793E+02	 1.011E+01	 5.885E+02	 1.060E-01	 4.228E+01	 5.827E+02	 1.164E+03	 6.030E+00	 9.513E+00
   1.297	 3.288E+01	 0.000E+00	 0.000E+00	 4.392E+00	 3.207E+00	 3.676E+00	-5.491E-01	-5.581E-01	 3.799E-01	-2.487E+00	 1.889E-01	-3.914E-01	 1.060E+04	 7.522E+03	 9.199E+03	 2.516E+03	 2.606E+03	-4.430E+03	 1.060E+04	 7.527E+03	 9.190E+03	 2.496E+03	 2.592E+03	-4.447E+03	 2.544E+03	 1.695E+05	 1.386E+02	 2.228E+03	-1.447E+03	 6.038E+00	 5.804E+02	 1.013E+01	 5.882E+02	 1.060E-01	 4.284E+01	 5.610E+02	 1.172E+03	 6.038E+00	 9.147E+00
   1.312	 3.288E+01	 0.000E+00	 0.000E+00	 4.401E+00	 3.179E+00	 3.672E+00	-5.566E-01	-5.336E-01	 3.707E-01	-2.545E+00	 1.408E-01	-4.133E-01	 1.066E+04	 7.494E+03	 9.231E+03	 2.563E+03	 2.463E+03	-4.360E+03	 1.067E+04	 7.498E+03	 9.223E+03	 2.544E+03	 2.449E+03	-4.377E+03	 3.333E+03	 1.711E+05	 1.803E+02	 2.302E+03	-1.505E+03	 6.044E+00	 5.819E+02	 1.016E+01	 5.879E+02	 1.060E-01	 4.341E+01	 5.456E+02	 1.180E+03	 6.044E+00	 8.887E+00
   1.325	 3.288E+01	 0.000E+00	 0.000E+00	 4.413E+00	 3.160E+00	 3.672E+00	-5.634E-01	-5.122E-01	 3.597E-01	-2.584E+00	 9.993E-02	-4.294E-01	 1.072E+04	 7.495E+03	 9.269E+03	 2.603E+03	 2.336E+03	-4.284E+03	 1.073E+04	 7.499E+03	 9.262E+03	 2.583E+03	 2.322E+03	-4.301E+03	 3.952E+03	 1.723E+05	 2.188E+02	 2.354E+03	-1.539E+03	 6.047E+00	 5.824E+02	 1.017E+01	 5.876E+02	 1.060E-01	 4.386E+01	 5.388E+02	 1.188E+03	 6.047E+00	 8.772E+00
   1.344	 3.288E+01	 0.000E+00	 0.000E+00	 4.441E+00	 3.140E+00	 3.679E+00	-5.747E-01	-4.778E-01	 3.380E-01	-2.636E+00	 3.866E-02	-4.509E-01	 1.083E+04	 7.530E+03	 9.339E+03	 2.663E+03	 2.130E+03	-4.143E+03	 1.083E+04	 7.534E+03	 9.331E+03	 2.643E+03	 2.116E+03	-4.160E+03	 4.787E+03	 1.741E+05	 2.840E+02	 2.419E+03	-1.570E+03	 6.051E+00	 5.827E+02	 1.018E+01	 5.871E+02	 1.060E-01	 4.454E+01	 5.353E+02	 1.201E+03	 6.051E+00	 8.710E+00
   1.359	 3.288E+01	 0.000E+00	 0.000E+00	 4.473E+00	 3.130E+00	 3.691E+00	-5.852E-01	-4.469E-01	 3.143E-01	-2.666E+00	-4.228E-03	-4.633E-01	 1.093E+04	 7.589E+03	 9.413E+03	 2.714E+03	 1.938E+03	-3.995E+03	 1.093E+04	 7.592E+03	 9.405E+03	 2.694E+03	 1.924E+03	-4.012E+03	 5.299E+03	 1.755E+05	 3.475E+02	 2.461E+03	-1.584E+03	 6.052E+00	 5.828E+02	 1.019E+01	 5.867E+02	 1.060E-01	 4.511E+01	 5.388E+02	 1.213E+03	 6.052E+00	 8.766E+00
   1.375	 3.288E+01	 0.000E+00	 0.000E+00	 4.511E+00	 3.125E+00	 3.708E+00	-5.962E-01	-4.150E-01	 2.875E-01	-2.689E+00	-3.922E-02	-4.719E-01	 1.103E+04	 7.661E+03	 9.493E+03	 2.765E+03	 1.736E+03	-3.832E+03	 1.104E+04	 7.664E+03	 9.486E+03	 2.744E+03	 1.722E+03	-3.849E+03	 5.651E+03	 1.769E+05	 4.169E+02	 2.498E+03	-1.590E+03	 6.052E+00	 5.827E+02	 1.020E+01	 5.863E+02	 1.060E-01	 4.568E+01	 5.455E+02	 1.225E+03	 6.052E+00	 8.872E+00
   1.388	 3.288E+01	 0.000E+00	 0.000E+00	 4.547E+00	 3.126E+00	 3.725E+00	-6.054E-01	-3.887E-01	 2.633E-01	-2.702E+00	-5.993E-02	-4.752E-01	 1.112E+04	 7.729E+03	 9.560E+03	 2.805E+03	 1.567E+03	-3.688E+03	 1.112E+04	 7.732E+03	 9.553E+03	 2.784E+03	 1.553E+03	-3.706E+03	 5.771E+03	 1.781E+05	 4.777E+02	 2.525E+03	-1.588E+03	 6.053E+00	 5.824E+02	 1.020E+01	 5.860E+02	 1.060E-01	 4.613E+01	 5.538E+02	 1.234E+03	 6.053E+00	 9.007E+00
   1.406	 3.288E+01	 0.000E+00	 0.000E+00	 4.608E+00	 3.133E+00	 3.758E+00	-6.195E-01	-3.484E-01	 2.234E-01	-2.712E+00	-7.760E-02	-4.743E-01	 1.125E+04	 7.839E+03	 9.665E+03	 2.864E+03	 1.302E+03	-3.455E+03	 1.126E+04	 7.841E+03	 9.659E+03	 2.844E+03	 1.288E+03	-3.472E+03	 5.695E+03	 1.797E+05	 5.766E+02	 2.562E+03	-1.581E+03	 6.054E+00	 5.821E+02	 1.020E+01	 5.857E+02	 1.060E-01	 4.681E+01	 5.707E+02	 1.247E+03	 6.054E+00	 9.280E+00
   1.422	 3.288E+01	 0.000E+00	 0.000E+00	 4.667E+00	 3.147E+00	 3.793E+00	-6.313E-01	-3.143E-01	 1.869E-01	-2.713E+00	-7.819E-02	-4.673E-01	 1.137E+04	 7.935E+03	 9.753E+03	 2.913E+03	 1.075E+03	-3.244E+03	 1.137E+04	 7.937E+03	 9.747E+03	 2.892E+03	 1.060E+03	-3.262E+03	 5.339E+03	 1.811E+05	 6.672E+02	 2.595E+03	-1.571E+03	 6.057E+00	 5.817E+02	 1.020E+01	 5.854E+02	 1.060E-01	 4.738E+01	 5.903E+02	 1.257E+03	 6.057E+00	 9.595E+00
   1.438	 3.288E+01	 0.000E+00	 0.000E+00	 4.731E+00	 3.165E+00	 3.833E+00	-6.431E-01	-2.804E-01	 1.490E-01	-2.709E+00	-7.113E-02	-4.569E-01	 1.148E+04	 8.028E+03	 9.840E+03	 2.961E+03	 8.443E+02	-3.025E+03	 1.149E+04	 8.030E+03	 9.834E+03	 2.939E+03	 8.295E+02	-3.043E+03	 4.832E+03	 1.825E+05	 7.628E+02	 2.631E+03	-1.562E+03	 6.061E+00	 5.807E+02	 1.019E+01	 5.853E+02	 1.060E-01	 4.795E+01	 6.139E+02	 1.265E+03	 6.061E+00	 9.972E+00
   1.450	 3.288E+01	 0.000E+00	 0.000E+00	 4.785E+00	 3.184E+00	 3.869E+00	-6.523E-01	-2.534E-01	 1.174E-01	-2.702E+00	-5.944E-02	-4.457E-01	 1.158E+04	 8.101E+03	 9.908E+03	 2.998E+03	 6.597E+02	-2.844E+03	 1.158E+04	 8.102E+03	 9.902E+03	 2.977E+03	 6.447E+02	-2.862E+03	 4.298E+03	 1.836E+05	 8.440E+02	 2.663E+03	-1.555E+03	 6.065E+00	 5.802E+02	 1.018E+01	 5.853E+02	 1.060E-01	 4.840E+01	 6.368E+02	 1.272E+03	 6.065E+00	 1.034E+01
   1.469	 3.288E+01	 0.000E+00	 0.000E+00	 4.872E+00	 3.219E+00	 3.930E+00	-6.657E-01	-2.138E-01	 6.900E-02	-2.689E+00	-3.523E-02	-4.268E-01	 1.172E+04	 8.208E+03	 1.000E+04	 3.052E+03	 3.870E+02	-2.568E+03	 1.172E+04	 8.209E+03	 1.000E+04	 3.031E+03	 3.719E+02	-2.587E+03	 3.369E+03	 1.852E+05	 9.728E+02	 2.716E+03	-1.542E+03	 6.073E+00	 5.796E+02	 1.017E+01	 5.855E+02	 1.060E-01	 4.909E+01	 6.772E+02	 1.279E+03	 6.073E+00	 1.098E+01
   1.484	 3.288E+01	 0.000E+00	 0.000E+00	 4.950E+00	 3.254E+00	 3.988E+00	-6.765E-01	-1.823E-01	 2.808E-02	-2.675E+00	-1.128E-02	-4.091E-01	 1.184E+04	 8.292E+03	 1.008E+04	 3.096E+03	 1.670E+02	-2.335E+03	 1.184E+04	 8.292E+03	 1.008E+04	 3.074E+03	 1.516E+02	-2.354E+03	 2.522E+03	 1.864E+05	 1.088E+03	 2.769E+03	-1.534E+03	 6.082E+00	 5.790E+02	 1.016E+01	 5.858E+02	 1.060E-01	 4.966E+01	 7.180E+02	 1.285E+03	 6.082E+00	 1.162E+01
   1.500	 3.288E+01	 0.000E+00	 0.000E+00	 5.030E+00	 3.292E+00	 4.049E+00	-6.870E-01	-1.521E-01	-1.267E-02	-2.659E+00	 1.148E-02	-3.919E-01	 1.196E+04	 8.376E+03	 1.016E+04	 3.138E+03	-4.498E+01	-2.104E+03	 1.197E+04	 8.376E+03	 1.016E+04	 3.116E+03	-6.047E+01	-2.123E+03	 1.700E+03	 1.875E+05	 1.207E+03	 2.825E+03	-1.525E+03	 6.093E+00	 5.779E+02	 1.013E+01	 5.863E+02	 1.060E-01	 5.023E+01	 7.626E+02	 1.290E+03	 6.093E+00	 1.232E+01
   1.513	 3.288E+01	 0.000E+00	 0.000E+00	 5.097E+00	 3.326E+00	 4.101E+00	-6.952E-01	-1.295E-01	-4.495E-02	-2.648E+00	 2.811E-02	-3.793E-01	 1.206E+04	 8.443E+03	 1.022E+04	 3.170E+03	-2.056E+02	-1.923E+03	 1.207E+04	 8.442E+03	 1.022E+04	 3.148E+03	-2.212E+02	-1.942E+03	 1.087E+03	 1.883E+05	 1.305E+03	 2.873E+03	-1.518E+03	 6.102E+00	 5.774E+02	 1.011E+01	 5.868E+02	 1.060E-01	 5.069E+01	 8.016E+02	 1.294E+03	 6.102E+00	 1.293E+01
   1.531	 3.288E+01	 0.000E+00	 0.000E+00	 5.198E+00	 3.381E+00	 4.184E+00	-7.072E-01	-9.823E-02	-9.242E-02	-2.628E+00	 4.601E-02	-3.627E-01	 1.222E+04	 8.546E+03	 1.032E+04	 3.215E+03	-4.312E+02	-1.659E+03	 1.223E+04	 8.546E+03	 1.032E+04	 3.192E+03	-4.470E+02	-1.678E+03	 3.009E+02	 1.893E+05	 1.453E+03	 2.948E+03	-1.508E+03	 6.116E+00	 5.770E+02	 1.010E+01	 5.879E+02	 1.060E-01	 5.137E+01	 8.631E+02	 1.300E+03	 6.116E+00	 1.389E+01
   1.547	 3.288E+01	 0.000E+00	 0.000E+00	 5.284E+00	 3.431E+00	 4.257E+00	-7.170E-01	-7.588E-02	-1.303E-01	-2.613E+00	 5.119E-02	-3.533E-01	 1.236E+04	 8.637E+03	 1.040E+04	 3.247E+03	-5.980E+02	-1.453E+03	 1.237E+04	 8.636E+03	 1.040E+04	 3.225E+03	-6.140E+02	-1.472E+03	-1.420E+02	 1.899E+05	 1.574E+03	 3.013E+03	-1.502E+03	 6.129E+00	 5.766E+02	 1.008E+01	 5.892E+02	 1.060E-01	 5.195E+01	 9.157E+02	 1.306E+03	 6.129E+00	 1.471E+01
   1.562	 3.288E+01	 0.000E+00	 0.000E+00	 5.371E+00	 3.483E+00	 4.331E+00	-7.267E-01	-5.619E-02	-1.668E-01	-2.595E+00	 4.730E-02	-3.466E-01	 1.251E+04	 8.735E+03	 1.050E+04	 3.277E+03	-7.504E+02	-1.258E+03	 1.252E+04	 8.733E+03	 1.050E+04	 3.253E+03	-7.665E+02	-1.278E+03	-4.222E+02	 1.903E+05	 1.690E+03	 3.078E+03	-1.498E+03	 6.142E+00	 5.761E+02	 1.004E+01	 5.906E+02	 1.060E-01	 5.252E+01	 9.671E+02	 1.313E+03	 6.142E+00	 1.550E+01
   1.575	 3.288E+01	 0.000E+00	 0.000E+00	 5.440E+00	 3.526E+00	 4.393E+00	-7.344E-01	-4.307E-02	-1.944E-01	-2.580E+00	 3.627E-02	-3.441E-01	 1.264E+04	 8.819E+03	 1.059E+04	 3.296E+03	-8.579E+02	-1.116E+03	 1.265E+04	 8.817E+03	 1.058E+04	 3.273E+03	-8.742E+02	-1.135E+03	-4.894E+02	 1.905E+05	 1.776E+03	 3.129E+03	-1.498E+03	 6.153E+00	 5.760E+02	 1.001E+01	 5.919E+02	 1.060E-01	 5.298E+01	 1.006E+03	 1.319E+03	 6.153E+00	 1.610E+01
   1.594	 3.288E+01	 0.000E+00	 0.000E+00	 5.544E+00	 3.592E+00	 4.487E+00	-7.457E-01	-2.748E-02	-2.331E-01	-2.561E+00	 9.780E-03	-3.456E-01	 1.283E+04	 8.949E+03	 1.072E+04	 3.319E+03	-9.963E+02	-9.232E+02	 1.284E+04	 8.947E+03	 1.072E+04	 3.295E+03	-1.013E+03	-9.430E+02	-3.595E+02	 1.906E+05	 1.892E+03	 3.199E+03	-1.505E+03	 6.169E+00	 5.760E+02	 9.993E+00	 5.940E+02	 1.060E-01	 5.368E+01	 1.060E+03	 1.329E+03	 6.169E+00	 1.691E+01
   1.609	 3.288E+01	 0.000E+00	 0.000E+00	 5.630E+00	 3.649E+00	 4.567E+00	-7.548E-01	-1.940E-02	-2.615E-01	-2.541E+00	-2.404E-02	-3.505E-01	 1.300E+04	 9.067E+03	 1.086E+04	 3.331E+03	-1.085E+03	-7.913E+02	 1.301E+04	 9.065E+03	 1.086E+04	 3.307E+03	-1.102E+03	-8.114E+02	-4.517E+00	 1.905E+05	 1.971E+03	 3.253E+03	-1.521E+03	 6.183E+00	 5.761E+02	 9.970E+00	 5.961E+02	 1.060E-01	 5.426E+01	 1.096E+03	 1.339E+03	 6.183E+00	 1.745E+01
   1.625	 3.288E+01	 0.000E+00	 0.000E+00	 5.714E+00	 3.707E+00	 4.647E+00	-7.635E-01	-1.430E-02	-2.871E-01	-2.518E+00	-6.215E-02	-3.574E-01	 1.318E+04	 9.189E+03	 1.100E+04	 3.337E+03	-1.158E+03	-6.791E+02	 1.318E+04	 9.187E+03	 1.100E+04	 3.313E+03	-1.175E+03	-6.995E+02	 4.660E+02	 1.902E+05	 2.036E+03	 3.301E+03	-1.545E+03	 6.196E+00	 5.764E+02	 9.923E+00	 5.982E+02	 1.060E-01	 5.484E+01	 1.126E+03	 1.350E+03	 6.196E+00	 1.789E+01
   1.638	 3.288E+01	 0.000E+00	 0.000E+00	 5.781E+00	 3.754E+00	 4.711E+00	-7.700E-01	-1.302E-02	-3.046E-01	-2.501E+00	-9.469E-02	-3.648E-01	 1.332E+04	 9.287E+03	 1.113E+04	 3.338E+03	-1.199E+03	-6.090E+02	 1.332E+04	 9.284E+03	 1.113E+04	 3.313E+03	-1.216E+03	-6.296E+02	 9.347E+02	 1.898E+05	 2.075E+03	 3.332E+03	-1.573E+03	 6.207E+00	 5.767E+02	 9.898E+00	 6.000E+02	 1.060E-01	 5.530E+01	 1.143E+03	 1.358E+03	 6.207E+00	 1.813E+01
   1.656	 3.288E+01	 0.000E+00	 0.000E+00	 5.880E+00	 3.824E+00	 4.807E+00	-7.787E-01	-1.498E-02	-3.262E-01	-2.469E+00	-1.445E-01	-3.761E-01	 1.353E+04	 9.435E+03	 1.134E+04	 3.331E+03	-1.239E+03	-5.340E+02	 1.353E+04	 9.433E+03	 1.134E+04	 3.306E+03	-1.257E+03	-5.550E+02	 1.715E+03	 1.892E+05	 2.113E+03	 3.371E+03	-1.629E+03	 6.224E+00	 5.770E+02	 9.874E+00	 6.028E+02	 1.060E-01	 5.600E+01	 1.159E+03	 1.373E+03	 6.224E+00	 1.834E+01
   1.672	 3.288E+01	 0.000E+00	 0.000E+00	 5.960E+00	 3.883E+00	 4.888E+00	-7.844E-01	-2.081E-02	-3.380E-01	-2.441E+00	-1.815E-01	-3.856E-01	 1.369E+04	 9.552E+03	 1.152E+04	 3.318E+03	-1.246E+03	-5.076E+02	 1.370E+04	 9.550E+03	 1.152E+04	 3.293E+03	-1.264E+03	-5.289E+02	 2.385E+03	 1.885E+05	 2.120E+03	 3.390E+03	-1.692E+03	 6.239E+00	 5.774E+02	 9.850E+00	 6.052E+02	 1.060E-01	 5.658E+01	 1.161E+03	 1.384E+03	 6.239E+00	 1.831E+01
   1.688	 3.288E+01	 0.000E+00	 0.000E+00	 6.038E+00	 3.942E+00	 4.968E+00	-7.889E-01	-2.891E-02	-3.458E-01	-2.408E+00	-2.126E-01	-3.930E-01	 1.386E+04	 9.665E+03	 1.171E+04	 3.302E+03	-1.237E+03	-5.057E+02	 1.386E+04	 9.663E+03	 1.171E+04	 3.276E+03	-1.255E+03	-5.273E+02	 3.011E+03	 1.878E+05	 2.113E+03	 3.404E+03	-1.768E+03	 6.253E+00	 5.782E+02	 9.801E+00	 6.076E+02	 1.060E-01	 5.717E+01	 1.154E+03	 1.395E+03	 6.253E+00	 1.818E+01
   1.700	 3.288E+01	 0.000E+00	 0.000E+00	 6.100E+00	 3.989E+00	 5.032E+00	-7.913E-01	-3.745E-02	-3.481E-01	-2.379E+00	-2.316E-01	-3.973E-01	 1.398E+04	 9.748E+03	 1.186E+04	 3.286E+03	-1.216E+03	-5.257E+02	 1.399E+04	 9.746E+03	 1.186E+04	 3.260E+03	-1.234E+03	-5.476E+02	 3.452E+03	 1.872E+05	 2.094E+03	 3.408E+03	-1.839E+03	 6.265E+00	 5.785E+02	 9.778E+00	 6.094E+02	 1.060E-01	 5.764E+01	 1.143E+03	 1.403E+03	 6.265E+00	 1.796E+01
   1.719	 3.288E+01	 0.000E+00	 0.000E+00	 6.189E+00	 4.059E+00	 5.127E+00	-7.931E-01	-5.292E-02	-3.458E-01	-2.335E+00	-2.488E-01	-4.012E-01	 1.415E+04	 9.860E+03	 1.209E+04	 3.254E+03	-1.165E+03	-5.833E+02	 1.416E+04	 9.858E+03	 1.209E+04	 3.228E+03	-1.183E+03	-6.057E+02	 3.982E+03	 1.862E+05	 2.048E+03	 3.404E+03	-1.953E+03	 6.282E+00	 5.789E+02	 9.754E+00	 6.121E+02	 1.060E-01	 5.834E+01	 1.116E+03	 1.414E+03	 6.282E+00	 1.749E+01
   1.734	 3.288E+01	 0.000E+00	 0.000E+00	 6.260E+00	 4.116E+00	 5.207E+00	-7.925E-01	-6.859E-02	-3.373E-01	-2.292E+00	-2.478E-01	-3.994E-01	 1.428E+04	 9.940E+03	 1.228E+04	 3.224E+03	-1.101E+03	-6.660E+02	 1.428E+04	 9.938E+03	 1.228E+04	 3.197E+03	-1.119E+03	-6.887E+02	 4.234E+03	 1.854E+05	 1.994E+03	 3.392E+03	-2.059E+03	 6.296E+00	 5.793E+02	 9.731E+00	 6.142E+02	 1.060E-01	 5.893E+01	 1.085E+03	 1.421E+03	 6.296E+00	 1.696E+01
   1.750	 3.288E+01	 0.000E+00	 0.000E+00	 6.329E+00	 4.172E+00	 5.286E+00	-7.906E-01	-8.572E-02	-3.251E-01	-2.247E+00	-2.369E-01	-3.947E-01	 1.439E+04	 1.001E+04	 1.247E+04	 3.192E+03	-1.025E+03	-7.663E+02	 1.440E+04	 1.001E+04	 1.247E+04	 3.165E+03	-1.043E+03	-7.893E+02	 4.357E+03	 1.846E+05	 1.935E+03	 3.375E+03	-2.164E+03	 6.310E+00	 5.798E+02	 9.687E+00	 6.161E+02	 1.060E-01	 5.953E+01	 1.049E+03	 1.427E+03	 6.310E+00	 1.636E+01
   1.763	 3.288E+01	 0.000E+00	 0.000E+00	 6.381E+00	 4.216E+00	 5.349E+00	-7.880E-01	-1.008E-01	-3.119E-01	-2.211E+00	-2.161E-01	-3.886E-01	 1.447E+04	 1.006E+04	 1.261E+04	 3.165E+03	-9.528E+02	-8.639E+02	 1.447E+04	 1.006E+04	 1.260E+04	 3.138E+03	-9.714E+02	-8.872E+02	 4.338E+03	 1.839E+05	 1.885E+03	 3.354E+03	-2.249E+03	 6.321E+00	 5.800E+02	 9.666E+00	 6.175E+02	 1.060E-01	 6.000E+01	 1.016E+03	 1.430E+03	 6.321E+00	 1.582E+01
   1.781	 3.288E+01	 0.000E+00	 0.000E+00	 6.456E+00	 4.279E+00	 5.443E+00	-7.830E-01	-1.251E-01	-2.877E-01	-2.151E+00	-1.734E-01	-3.752E-01	 1.457E+04	 1.013E+04	 1.280E+04	 3.123E+03	-8.304E+02	-1.032E+03	 1.458E+04	 1.013E+04	 1.280E+04	 3.096E+03	-8.492E+02	-1.055E+03	 4.151E+03	 1.830E+05	 1.808E+03	 3.317E+03	-2.367E+03	 6.336E+00	 5.801E+02	 9.646E+00	 6.195E+02	 1.060E-01	 6.071E+01	 9.627E+02	 1.434E+03	 6.336E+00	 1.496E+01
   1.797	 3.288E+01	 0.000E+00	 0.000E+00	 6.514E+00	 4.330E+00	 5.520E+00	-7.780E-01	-1.473E-01	-2.632E-01	-2.102E+00	-1.197E-01	-3.607E-01	 1.464E+04	 1.019E+04	 1.295E+04	 3.091E+03	-7.132E+02	-1.194E+03	 1.464E+04	 1.018E+04	 1.295E+04	 3.064E+03	-7.320E+02	-1.218E+03	 3.850E+03	 1.821E+05	 1.747E+03	 3.275E+03	-2.458E+03	 6.349E+00	 5.802E+02	 9.627E+00	 6.208E+02	 1.060E-01	 6.131E+01	 9.155E+02	 1.435E+03	 6.349E+00	 1.420E+01
   1.812	 3.288E+01	 0.000E+00	 0.000E+00	 6.568E+00	 4.378E+00	 5.596E+00	-7.728E-01	-1.706E-01	-2.369E-01	-2.048E+00	-6.457E-02	-3.440E-01	 1.470E+04	 1.024E+04	 1.309E+04	 3.060E+03	-5.885E+02	-1.366E+03	 1.470E+04	 1.024E+04	 1.309E+04	 3.033E+03	-6.074E+02	-1.390E+03	 3.501E+03	 1.813E+05	 1.688E+03	 3.232E+03	-2.535E+03	 6.361E+00	 5.802E+02	 9.592E+00	 6.220E+02	 1.060E-01	 6.190E+01	 8.682E+02	 1.437E+03	 6.361E+00	 1.344E+01
   1.825	 3.288E+01	 0.000E+00	 0.000E+00	 6.607E+00	 4.414E+00	 5.655E+00	-7.688E-01	-1.902E-01	-2.143E-01	-2.002E+00	-1.613E-02	-3.292E-01	 1.474E+04	 1.029E+04	 1.319E+04	 3.038E+03	-4.824E+02	-1.511E+03	 1.475E+04	 1.028E+04	 1.319E+04	 3.011E+03	-5.015E+02	-1.535E+03	 3.194E+03	 1.806E+05	 1.642E+03	 3.192E+03	-2.587E+03	 6.370E+00	 5.800E+02	 9.575E+00	 6.228E+02	 1.060E-01	 6.238E+01	 8.310E+02	 1.437E+03	 6.370E+00	 1.284E+01
   1.844	 3.288E+01	 0.000E+00	 0.000E+00	 6.661E+00	 4.466E+00	 5.741E+00	-7.634E-01	-2.209E-01	-1.791E-01	-1.938E+00	 6.123E-02	-3.070E-01	 1.478E+04	 1.035E+04	 1.334E+04	 3.010E+03	-3.131E+02	-1.740E+03	 1.479E+04	 1.035E+04	 1.333E+04	 2.983E+03	-3.322E+02	-1.764E+03	 2.749E+03	 1.795E+05	 1.574E+03	 3.122E+03	-2.654E+03	 6.383E+00	 5.798E+02	 9.560E+00	 6.238E+02	 1.060E-01	 6.310E+01	 7.779E+02	 1.436E+03	 6.383E+00	 1.200E+01
   1.859	 3.288E+01	 0.000E+00	 0.000E+00	 6.700E+00	 4.505E+00	 5.809E+00	-7.602E-01	-2.478E-01	-1.491E-01	-1.879E+00	 1.165E-01	-2.879E-01	 1.482E+04	 1.042E+04	 1.344E+04	 2.995E+03	-1.652E+02	-1.935E+03	 1.482E+04	 1.042E+04	 1.344E+04	 2.968E+03	-1.844E+02	-1.959E+03	 2.453E+03	 1.785E+05	 1.514E+03	 3.061E+03	-2.689E+03	 6.394E+00	 5.796E+02	 9.546E+00	 6.243E+02	 1.060E-01	 6.369E+01	 7.392E+02	 1.436E+03	 6.394E+00	 1.138E+01
   1.875	 3.288E+01	 0.000E+00	 0.000E+00	 6.734E+00	 4.542E+00	 5.874E+00	-7.581E-01	-2.752E-01	-1.196E-01	-1.820E+00	 1.638E-01	-2.695E-01	 1.485E+04	 1.049E+04	 1.355E+04	 2.986E+03	-1.445E+01	-2.130E+03	 1.485E+04	 1.049E+04	 1.354E+04	 2.959E+03	-3.386E+01	-2.155E+03	 2.247E+03	 1.774E+05	 1.451E+03	 2.997E+03	-2.714E+03	 6.405E+00	 5.790E+02	 9.520E+00	 6.248E+02	 1.060E-01	 6.429E+01	 7.055E+02	 1.436E+03	 6.405E+00	 1.084E+01
   1.888	 3.288E+01	 0.000E+00	 0.000E+00	 6.757E+00	 4.570E+00	 5.923E+00	-7.576E-01	-2.975E-01	-9.661E-02	-1.775E+00	 1.970E-01	-2.564E-01	 1.487E+04	 1.055E+04	 1.362E+04	 2.984E+03	 1.087E+02	-2.285E+03	 1.487E+04	 1.055E+04	 1.362E+04	 2.957E+03	 8.919E+01	-2.310E+03	 2.177E+03	 1.765E+05	 1.398E+03	 2.942E+03	-2.729E+03	 6.414E+00	 5.786E+02	 9.509E+00	 6.250E+02	 1.060E-01	 6.478E+01	 6.841E+02	 1.436E+03	 6.414E+00	 1.050E+01
   1.906	 3.288E+01	 0.000E+00	 0.000E+00	 6.785E+00	 4.608E+00	 5.991E+00	-7.588E-01	-3.310E-01	-6.360E-02	-1.704E+00	 2.328E-01	-2.380E-01	 1.489E+04	 1.064E+04	 1.373E+04	 2.992E+03	 2.913E+02	-2.511E+03	 1.490E+04	 1.064E+04	 1.372E+04	 2.965E+03	 2.717E+02	-2.536E+03	 2.233E+03	 1.749E+05	 1.317E+03	 2.857E+03	-2.741E+03	 6.427E+00	 5.782E+02	 9.499E+00	 6.253E+02	 1.060E-01	 6.550E+01	 6.612E+02	 1.436E+03	 6.427E+00	 1.013E+01
   1.922	 3.288E+01	 0.000E+00	 0.000E+00	 6.801E+00	 4.637E+00	 6.041E+00	-7.621E-01	-3.587E-01	-3.843E-02	-1.648E+00	 2.492E-01	-2.262E-01	 1.491E+04	 1.071E+04	 1.381E+04	 3.009E+03	 4.406E+02	-2.687E+03	 1.491E+04	 1.071E+04	 1.381E+04	 2.982E+03	 4.208E+02	-2.712E+03	 2.476E+03	 1.735E+05	 1.247E+03	 2.785E+03	-2.748E+03	 6.439E+00	 5.779E+02	 9.490E+00	 6.255E+02	 1.060E-01	 6.610E+01	 6.542E+02	 1.436E+03	 6.439E+00	 1.000E+01
   1.938	 3.288E+01	 0.000E+00	 0.000E+00	 6.813E+00	 4.664E+00	 6.087E+00	-7.667E-01	-3.857E-01	-1.510E-02	-1.589E+00	 2.563E-01	-2.155E-01	 1.492E+04	 1.078E+04	 1.390E+04	 3.035E+03	 5.818E+02	-2.851E+03	 1.493E+04	 1.078E+04	 1.389E+04	 3.008E+03	 5.619E+02	-2.877E+03	 2.830E+03	 1.720E+05	 1.176E+03	 2.713E+03	-2.758E+03	 6.450E+00	 5.772E+02	 9.475E+00	 6.256E+02	 1.060E-01	 6.671E+01	 6.551E+02	 1.437E+03	 6.450E+00	 9.999E+00
   1.950	 3.288E+01	 0.000E+00	 0.000E+00	 6.818E+00	 4.685E+00	 6.120E+00	-7.716E-01	-4.065E-01	 1.717E-03	-1.542E+00	 2.552E-01	-2.086E-01	 1.493E+04	 1.083E+04	 1.397E+04	 3.063E+03	 6.876E+02	-2.971E+03	 1.494E+04	 1.083E+04	 1.396E+04	 3.035E+03	 6.675E+02	-2.997E+03	 3.205E+03	 1.707E+05	 1.118E+03	 2.655E+03	-2.773E+03	 6.460E+00	 5.770E+02	 9.470E+00	 6.257E+02	 1.060E-01	 6.719E+01	 6.632E+02	 1.438E+03	 6.460E+00	 1.011E+01
   1.969	 3.288E+01	 0.000E+00	 0.000E+00	 6.821E+00	 4.714E+00	 6.163E+00	-7.805E-01	-4.358E-01	 2.400E-02	-1.480E+00	 2.399E-01	-2.028E-01	 1.493E+04	 1.090E+04	 1.405E+04	 3.110E+03	 8.376E+02	-3.133E+03	 1.494E+04	 1.090E+04	 1.404E+04	 3.083E+03	 8.175E+02	-3.159E+03	 3.867E+03	 1.686E+05	 1.028E+03	 2.573E+03	-2.791E+03	 6.474E+00	 5.768E+02	 9.465E+00	 6.260E+02	 1.060E-01	 6.792E+01	 6.858E+02	 1.437E+03	 6.474E+00	 1.043E+01
   1.984	 3.288E+01	 0.000E+00	 0.000E+00	 6.816E+00	 4.736E+00	 6.192E+00	-7.895E-01	-4.575E-01	 3.896E-02	-1.427E+00	 2.175E-01	-2.000E-01	 1.492E+04	 1.093E+04	 1.412E+04	 3.161E+03	 9.428E+02	-3.244E+03	 1.493E+04	 1.094E+04	 1.411E+04	 3.133E+03	 9.226E+02	-3.270E+03	 4.478E+03	 1.667E+05	 9.515E+02	 2.508E+03	-2.823E+03	 6.486E+00	 5.767E+02	 9.460E+00	 6.264E+02	 1.060E-01	 6.852E+01	 7.154E+02	 1.436E+03	 6.486E+00	 1.086E+01
   2.000	 3.288E+01	 0.000E+00	 0.000E+00	 6.808E+00	 4.758E+00	 6.216E+00	-7.990E-01	-4.770E-01	 5.162E-02	-1.377E+00	 1.924E-01	-1.988E-01	 1.491E+04	 1.096E+04	 1.418E+04	 3.215E+03	 1.035E+03	-3.337E+03	 1.492E+04	 1.096E+04	 1.417E+04	 3.187E+03	 1.014E+03	-3.364E+03	 5.072E+03	 1.648E+05	 8.760E+02	 2.444E+03	-2.860E+03	 6.497E+00	 5.768E+02	 9.455E+00	 6.268E+02	 1.060E-01	 6.913E+01	 7.503E+02	 1.435E+03	 6.497E+00	 1.137E+01
   2.013	 3.288E+01	 0.000E+00	 0.000E+00	 6.798E+00	 4.774E+00	 6.232E+00	-8.070E-01	-4.903E-01	 5.954E-02	-1.342E+00	 1.710E-01	-2.001E-01	 1.489E+04	 1.097E+04	 1.421E+04	 3.262E+03	 1.094E+03	-3.397E+03	 1.489E+04	 1.097E+04	 1.421E+04	 3.235E+03	 1.074E+03	-3.423E+03	 5.513E+03	 1.631E+05	 8.177E+02	 2.393E+03	-2.885E+03	 6.507E+00	 5.771E+02	 9.454E+00	 6.273E+02	 1.060E-01	 6.962E+01	 7.826E+02	 1.432E+03	 6.507E+00	 1.184E+01
   2.031	 3.288E+01	 0.000E+00	 0.000E+00	 6.779E+00	 4.798E+00	 6.250E+00	-8.194E-01	-5.065E-01	 6.820E-02	-1.289E+00	 1.426E-01	-2.027E-01	 1.484E+04	 1.097E+04	 1.426E+04	 3.337E+03	 1.161E+03	-3.461E+03	 1.485E+04	 1.097E+04	 1.426E+04	 3.310E+03	 1.140E+03	-3.488E+03	 6.069E+03	 1.606E+05	 7.365E+02	 2.316E+03	-2.933E+03	 6.521E+00	 5.775E+02	 9.453E+00	 6.282E+02	 1.060E-01	 7.035E+01	 8.355E+02	 1.428E+03	 6.521E+00	 1.261E+01
   2.044	 3.288E+01	 0.000E+00	 0.000E+00	 6.763E+00	 4.812E+00	 6.257E+00	-8.275E-01	-5.141E-01	 7.154E-02	-1.258E+00	 1.280E-01	-2.057E-01	 1.480E+04	 1.096E+04	 1.428E+04	 3.389E+03	 1.186E+03	-3.486E+03	 1.480E+04	 1.096E+04	 1.428E+04	 3.362E+03	 1.165E+03	-3.512E+03	 6.330E+03	 1.589E+05	 6.882E+02	 2.264E+03	-2.960E+03	 6.530E+00	 5.781E+02	 9.453E+00	 6.290E+02	 1.060E-01	 7.084E+01	 8.727E+02	 1.424E+03	 6.530E+00	 1.316E+01
   2.056	 3.288E+01	 0.000E+00	 0.000E+00	 6.745E+00	 4.826E+00	 6.262E+00	-8.355E-01	-5.191E-01	 7.307E-02	-1.225E+00	 1.190E-01	-2.080E-01	 1.475E+04	 1.095E+04	 1.430E+04	 3.441E+03	 1.196E+03	-3.495E+03	 1.475E+04	 1.095E+04	 1.429E+04	 3.414E+03	 1.176E+03	-3.522E+03	 6.488E+03	 1.571E+05	 6.449E+02	 2.210E+03	-2.993E+03	 6.540E+00	 5.788E+02	 9.454E+00	 6.298E+02	 1.060E-01	 7.133E+01	 9.104E+02	 1.420E+03	 6.540E+00	 1.370E+01
   2.072	 3.288E+01	 0.000E+00	 0.000E+00	 6.719E+00	 4.841E+00	 6.264E+00	-8.449E-01	-5.210E-01	 7.208E-02	-1.188E+00	 1.151E-01	-2.116E-01	 1.467E+04	 1.092E+04	 1.430E+04	 3.507E+03	 1.182E+03	-3.485E+03	 1.468E+04	 1.093E+04	 1.429E+04	 3.480E+03	 1.162E+03	-3.511E+03	 6.502E+03	 1.549E+05	 5.982E+02	 2.139E+03	-3.017E+03	 6.552E+00	 5.796E+02	 9.456E+00	 6.311E+02	 1.060E-01	 7.195E+01	 9.565E+02	 1.413E+03	 6.552E+00	 1.437E+01
   2.084	 3.288E+01	 0.000E+00	 0.000E+00	 6.696E+00	 4.852E+00	 6.263E+00	-8.518E-01	-5.198E-01	 6.961E-02	-1.156E+00	 1.173E-01	-2.129E-01	 1.460E+04	 1.090E+04	 1.430E+04	 3.557E+03	 1.157E+03	-3.463E+03	 1.461E+04	 1.091E+04	 1.429E+04	 3.530E+03	 1.137E+03	-3.490E+03	 6.401E+03	 1.531E+05	 5.648E+02	 2.080E+03	-3.038E+03	 6.562E+00	 5.807E+02	 9.459E+00	 6.323E+02	 1.060E-01	 7.244E+01	 9.919E+02	 1.407E+03	 6.562E+00	 1.488E+01
   2.100	 3.288E+01	 0.000E+00	 0.000E+00	 6.666E+00	 4.864E+00	 6.258E+00	-8.598E-01	-5.147E-01	 6.424E-02	-1.116E+00	 1.249E-01	-2.135E-01	 1.451E+04	 1.088E+04	 1.429E+04	 3.619E+03	 1.105E+03	-3.419E+03	 1.452E+04	 1.088E+04	 1.428E+04	 3.592E+03	 1.085E+03	-3.445E+03	 6.129E+03	 1.509E+05	 5.281E+02	 2.005E+03	-3.052E+03	 6.575E+00	 5.833E+02	 9.467E+00	 6.339E+02	 1.060E-01	 7.305E+01	 1.034E+03	 1.400E+03	 6.575E+00	 1.547E+01
   2.113	 3.288E+01	 0.000E+00	 0.000E+00	 6.639E+00	 4.872E+00	 6.252E+00	-8.654E-01	-5.072E-01	 5.786E-02	-1.085E+00	 1.357E-01	-2.133E-01	 1.443E+04	 1.086E+04	 1.426E+04	 3.667E+03	 1.044E+03	-3.368E+03	 1.444E+04	 1.087E+04	 1.426E+04	 3.640E+03	 1.024E+03	-3.394E+03	 5.787E+03	 1.491E+05	 5.033E+02	 1.941E+03	-3.043E+03	 6.586E+00	 5.848E+02	 9.472E+00	 6.353E+02	 1.060E-01	 7.355E+01	 1.064E+03	 1.393E+03	 6.586E+00	 1.590E+01
   2.131	 3.288E+01	 0.000E+00	 0.000E+00	 6.595E+00	 4.881E+00	 6.239E+00	-8.725E-01	-4.911E-01	 4.534E-02	-1.033E+00	 1.563E-01	-2.095E-01	 1.431E+04	 1.084E+04	 1.422E+04	 3.734E+03	 9.268E+02	-3.269E+03	 1.431E+04	 1.085E+04	 1.421E+04	 3.707E+03	 9.067E+02	-3.295E+03	 5.127E+03	 1.464E+05	 4.736E+02	 1.843E+03	-3.022E+03	 6.603E+00	 5.864E+02	 9.479E+00	 6.375E+02	 1.060E-01	 7.429E+01	 1.105E+03	 1.382E+03	 6.603E+00	 1.647E+01
   2.144	 3.288E+01	 0.000E+00	 0.000E+00	 6.564E+00	 4.884E+00	 6.228E+00	-8.762E-01	-4.768E-01	 3.477E-02	-9.975E-01	 1.732E-01	-2.053E-01	 1.422E+04	 1.084E+04	 1.418E+04	 3.776E+03	 8.292E+02	-3.187E+03	 1.423E+04	 1.085E+04	 1.417E+04	 3.749E+03	 8.091E+02	-3.213E+03	 4.606E+03	 1.447E+05	 4.601E+02	 1.773E+03	-2.983E+03	 6.616E+00	 5.882E+02	 9.486E+00	 6.391E+02	 1.060E-01	 7.479E+01	 1.128E+03	 1.375E+03	 6.616E+00	 1.678E+01
   2.159	 3.288E+01	 0.000E+00	 0.000E+00	 6.523E+00	 4.885E+00	 6.211E+00	-8.795E-01	-4.548E-01	 1.893E-02	-9.469E-01	 1.945E-01	-1.964E-01	 1.411E+04	 1.085E+04	 1.412E+04	 3.822E+03	 6.853E+02	-3.065E+03	 1.412E+04	 1.085E+04	 1.412E+04	 3.796E+03	 6.652E+02	-3.091E+03	 3.909E+03	 1.425E+05	 4.521E+02	 1.686E+03	-2.921E+03	 6.632E+00	 5.902E+02	 9.494E+00	 6.412E+02	 1.060E-01	 7.541E+01	 1.151E+03	 1.367E+03	 6.632E+00	 1.709E+01
   2.172	 3.288E+01	 0.000E+00	 0.000E+00	 6.489E+00	 4.885E+00	 6.196E+00	-8.815E-01	-4.350E-01	 4.777E-03	-9.059E-01	 2.112E-01	-1.882E-01	 1.402E+04	 1.087E+04	 1.407E+04	 3.857E+03	 5.591E+02	-2.959E+03	 1.403E+04	 1.087E+04	 1.406E+04	 3.831E+03	 5.390E+02	-2.985E+03	 3.358E+03	 1.408E+05	 4.511E+02	 1.615E+03	-2.853E+03	 6.645E+00	 5.922E+02	 9.502E+00	 6.429E+02	 1.060E-01	 7.590E+01	 1.167E+03	 1.359E+03	 6.645E+00	 1.729E+01
   2.184	 3.288E+01	 0.000E+00	 0.000E+00	 6.453E+00	 4.882E+00	 6.180E+00	-8.827E-01	-4.131E-01	-1.088E-02	-8.600E-01	 2.252E-01	-1.775E-01	 1.394E+04	 1.089E+04	 1.402E+04	 3.888E+03	 4.214E+02	-2.842E+03	 1.395E+04	 1.089E+04	 1.401E+04	 3.862E+03	 4.012E+02	-2.868E+03	 2.833E+03	 1.391E+05	 4.555E+02	 1.545E+03	-2.780E+03	 6.659E+00	 5.944E+02	 9.512E+00	 6.447E+02	 1.060E-01	 7.640E+01	 1.179E+03	 1.353E+03	 6.659E+00	 1.744E+01
   2.200	 3.288E+01	 0.000E+00	 0.000E+00	 6.407E+00	 4.876E+00	 6.158E+00	-8.833E-01	-3.832E-01	-3.234E-02	-8.000E-01	 2.380E-01	-1.624E-01	 1.384E+04	 1.093E+04	 1.394E+04	 3.922E+03	 2.357E+02	-2.684E+03	 1.385E+04	 1.093E+04	 1.394E+04	 3.896E+03	 2.155E+02	-2.710E+03	 2.246E+03	 1.370E+05	 4.671E+02	 1.458E+03	-2.673E+03	 6.677E+00	 5.991E+02	 9.535E+00	 6.469E+02	 1.060E-01	 7.703E+01	 1.191E+03	 1.345E+03	 6.677E+00	 1.756E+01
   2.219	 3.288E+01	 0.000E+00	 0.000E+00	 6.350E+00	 4.866E+00	 6.129E+00	-8.827E-01	-3.439E-01	-6.085E-02	-7.262E-01	 2.431E-01	-1.421E-01	 1.372E+04	 1.098E+04	 1.384E+04	 3.957E+03	-3.953E+00	-2.479E+03	 1.373E+04	 1.098E+04	 1.384E+04	 3.931E+03	-2.427E+01	-2.505E+03	 1.687E+03	 1.345E+05	 4.888E+02	 1.360E+03	-2.524E+03	 6.699E+00	 6.015E+02	 9.548E+00	 6.496E+02	 1.060E-01	 7.778E+01	 1.198E+03	 1.335E+03	 6.699E+00	 1.761E+01
   2.231	 3.288E+01	 0.000E+00	 0.000E+00	 6.310E+00	 4.857E+00	 6.108E+00	-8.815E-01	-3.159E-01	-8.146E-02	-6.724E-01	 2.375E-01	-1.267E-01	 1.365E+04	 1.102E+04	 1.378E+04	 3.975E+03	-1.746E+02	-2.332E+03	 1.365E+04	 1.102E+04	 1.377E+04	 3.950E+03	-1.950E+02	-2.358E+03	 1.440E+03	 1.329E+05	 5.070E+02	 1.296E+03	-2.419E+03	 6.714E+00	 6.041E+02	 9.562E+00	 6.514E+02	 1.060E-01	 7.828E+01	 1.199E+03	 1.329E+03	 6.714E+00	 1.758E+01
   2.244	 3.288E+01	 0.000E+00	 0.000E+00	 6.270E+00	 4.847E+00	 6.086E+00	-8.797E-01	-2.868E-01	-1.031E-01	-6.197E-01	 2.242E-01	-1.112E-01	 1.357E+04	 1.106E+04	 1.371E+04	 3.990E+03	-3.494E+02	-2.182E+03	 1.358E+04	 1.106E+04	 1.370E+04	 3.965E+03	-3.699E+02	-2.207E+03	 1.299E+03	 1.312E+05	 5.266E+02	 1.238E+03	-2.312E+03	 6.728E+00	 6.067E+02	 9.577E+00	 6.532E+02	 1.060E-01	 7.879E+01	 1.196E+03	 1.322E+03	 6.728E+00	 1.751E+01
   2.259	 3.288E+01	 0.000E+00	 0.000E+00	 6.220E+00	 4.832E+00	 6.058E+00	-8.766E-01	-2.494E-01	-1.316E-01	-5.509E-01	 1.959E-01	-9.116E-02	 1.348E+04	 1.111E+04	 1.362E+04	 4.002E+03	-5.762E+02	-1.985E+03	 1.349E+04	 1.111E+04	 1.362E+04	 3.978E+03	-5.967E+02	-2.010E+03	 1.299E+03	 1.291E+05	 5.529E+02	 1.169E+03	-2.180E+03	 6.746E+00	 6.094E+02	 9.593E+00	 6.554E+02	 1.060E-01	 7.942E+01	 1.188E+03	 1.315E+03	 6.746E+00	 1.734E+01
   2.272	 3.288E+01	 0.000E+00	 0.000E+00	 6.179E+00	 4.820E+00	 6.035E+00	-8.737E-01	-2.190E-01	-1.550E-01	-4.975E-01	 1.655E-01	-7.563E-02	 1.341E+04	 1.114E+04	 1.355E+04	 4.009E+03	-7.587E+02	-1.826E+03	 1.342E+04	 1.114E+04	 1.354E+04	 3.984E+03	-7.793E+02	-1.851E+03	 1.397E+03	 1.274E+05	 5.745E+02	 1.121E+03	-2.080E+03	 6.759E+00	 6.122E+02	 9.610E+00	 6.571E+02	 1.060E-01	 7.993E+01	 1.178E+03	 1.308E+03	 6.759E+00	 1.716E+01
   2.288	 3.288E+01	 0.000E+00	 0.000E+00	 6.127E+00	 4.804E+00	 6.006E+00	-8.695E-01	-1.810E-01	-1.848E-01	-4.300E-01	 1.206E-01	-5.677E-02	 1.333E+04	 1.117E+04	 1.346E+04	 4.012E+03	-9.907E+02	-1.625E+03	 1.333E+04	 1.117E+04	 1.345E+04	 3.987E+03	-1.011E+03	-1.649E+03	 1.641E+03	 1.252E+05	 6.031E+02	 1.065E+03	-1.963E+03	 6.775E+00	 6.178E+02	 9.647E+00	 6.592E+02	 1.060E-01	 8.056E+01	 1.161E+03	 1.300E+03	 6.775E+00	 1.687E+01
   2.300	 3.288E+01	 0.000E+00	 0.000E+00	 6.086E+00	 4.790E+00	 5.982E+00	-8.656E-01	-1.506E-01	-2.090E-01	-3.773E-01	 7.996E-02	-4.282E-02	 1.326E+04	 1.118E+04	 1.339E+04	 4.009E+03	-1.176E+03	-1.462E+03	 1.326E+04	 1.118E+04	 1.338E+04	 3.984E+03	-1.197E+03	-1.487E+03	 1.930E+03	 1.234E+05	 6.278E+02	 1.024E+03	-1.878E+03	 6.787E+00	 6.207E+02	 9.668E+00	 6.608E+02	 1.060E-01	 8.107E+01	 1.143E+03	 1.293E+03	 6.787E+00	 1.657E+01
   2.319	 3.288E+01	 0.000E+00	 0.000E+00	 6.025E+00	 4.769E+00	 5.946E+00	-8.590E-01	-1.058E-01	-2.453E-01	-3.029E-01	 1.306E-02	-2.445E-02	 1.315E+04	 1.119E+04	 1.328E+04	 3.998E+03	-1.451E+03	-1.223E+03	 1.316E+04	 1.118E+04	 1.328E+04	 3.974E+03	-1.471E+03	-1.248E+03	 2.459E+03	 1.207E+05	 6.680E+02	 9.760E+02	-1.770E+03	 6.804E+00	 6.236E+02	 9.690E+00	 6.630E+02	 1.060E-01	 8.183E+01	 1.109E+03	 1.282E+03	 6.804E+00	 1.605E+01
   2.331	 3.288E+01	 0.000E+00	 0.000E+00	 5.984E+00	 4.754E+00	 5.921E+00	-8.541E-01	-7.682E-02	-2.691E-01	-2.553E-01	-3.047E-02	-1.430E-02	 1.308E+04	 1.118E+04	 1.321E+04	 3.985E+03	-1.631E+03	-1.066E+03	 1.309E+04	 1.118E+04	 1.321E+04	 3.960E+03	-1.652E+03	-1.090E+03	 2.851E+03	 1.188E+05	 6.974E+02	 9.448E+02	-1.711E+03	 6.814E+00	 6.264E+02	 9.713E+00	 6.644E+02	 1.060E-01	 8.234E+01	 1.082E+03	 1.274E+03	 6.814E+00	 1.564E+01
   2.347	 3.288E+01	 0.000E+00	 0.000E+00	 5.934E+00	 4.735E+00	 5.891E+00	-8.472E-01	-4.215E-02	-2.979E-01	-2.004E-01	-8.385E-02	-4.681E-03	 1.299E+04	 1.115E+04	 1.312E+04	 3.962E+03	-1.847E+03	-8.768E+02	 1.300E+04	 1.114E+04	 1.312E+04	 3.938E+03	-1.868E+03	-9.011E+02	 3.336E+03	 1.164E+05	 7.358E+02	 9.159E+02	-1.659E+03	 6.826E+00	 6.293E+02	 9.737E+00	 6.659E+02	 1.060E-01	 8.298E+01	 1.044E+03	 1.264E+03	 6.826E+00	 1.506E+01
   2.359	 3.288E+01	 0.000E+00	 0.000E+00	 5.895E+00	 4.720E+00	 5.867E+00	-8.414E-01	-1.557E-02	-3.201E-01	-1.582E-01	-1.211E-01	 1.134E-03	 1.291E+04	 1.112E+04	 1.306E+04	 3.940E+03	-2.015E+03	-7.296E+02	 1.292E+04	 1.111E+04	 1.306E+04	 3.916E+03	-2.036E+03	-7.537E+02	 3.689E+03	 1.144E+05	 7.664E+02	 8.898E+02	-1.626E+03	 6.835E+00	 6.322E+02	 9.762E+00	 6.671E+02	 1.060E-01	 8.350E+01	 1.011E+03	 1.256E+03	 6.835E+00	 1.456E+01
   2.372	 3.288E+01	 0.000E+00	 0.000E+00	 5.856E+00	 4.704E+00	 5.844E+00	-8.351E-01	 9.675E-03	-3.411E-01	-1.188E-01	-1.562E-01	 5.111E-03	 1.284E+04	 1.107E+04	 1.299E+04	 3.916E+03	-2.175E+03	-5.904E+02	 1.284E+04	 1.107E+04	 1.299E+04	 3.892E+03	-2.195E+03	-6.145E+02	 3.993E+03	 1.123E+05	 7.960E+02	 8.704E+02	-1.607E+03	 6.843E+00	 6.351E+02	 9.788E+00	 6.681E+02	 1.060E-01	 8.401E+01	 9.760E+02	 1.247E+03	 6.843E+00	 1.404E+01
   2.388	 3.288E+01	 0.000E+00	 0.000E+00	 5.808E+00	 4.685E+00	 5.815E+00	-8.268E-01	 3.925E-02	-3.656E-01	-7.185E-02	-1.913E-01	 7.733E-03	 1.274E+04	 1.101E+04	 1.292E+04	 3.880E+03	-2.362E+03	-4.249E+02	 1.274E+04	 1.101E+04	 1.292E+04	 3.856E+03	-2.383E+03	-4.488E+02	 4.281E+03	 1.097E+05	 8.300E+02	 8.428E+02	-1.596E+03	 6.853E+00	 6.407E+02	 9.844E+00	 6.692E+02	 1.060E-01	 8.465E+01	 9.308E+02	 1.236E+03	 6.853E+00	 1.337E+01
   2.400	 3.288E+01	 0.000E+00	 0.000E+00	 5.771E+00	 4.668E+00	 5.792E+00	-8.196E-01	 6.096E-02	-3.834E-01	-3.612E-02	-2.121E-01	 7.924E-03	 1.266E+04	 1.095E+04	 1.287E+04	 3.847E+03	-2.500E+03	-3.025E+02	 1.266E+04	 1.095E+04	 1.287E+04	 3.824E+03	-2.520E+03	-3.263E+02	 4.415E+03	 1.076E+05	 8.538E+02	 8.209E+02	-1.598E+03	 6.860E+00	 6.435E+02	 9.874E+00	 6.699E+02	 1.060E-01	 8.516E+01	 8.942E+02	 1.228E+03	 6.860E+00	 1.283E+01
   2.419	 3.288E+01	 0.000E+00	 0.000E+00	 5.716E+00	 4.642E+00	 5.760E+00	-8.082E-01	 9.035E-02	-4.070E-01	 1.563E-02	-2.356E-01	 6.209E-03	 1.254E+04	 1.086E+04	 1.279E+04	 3.798E+03	-2.685E+03	-1.369E+02	 1.255E+04	 1.085E+04	 1.279E+04	 3.774E+03	-2.705E+03	-1.605E+02	 4.452E+03	 1.043E+05	 8.834E+02	 7.945E+02	-1.618E+03	 6.871E+00	 6.462E+02	 9.904E+00	 6.708E+02	 1.060E-01	 8.594E+01	 8.410E+02	 1.215E+03	 6.871E+00	 1.205E+01
   2.431	 3.288E+01	 0.000E+00	 0.000E+00	 5.681E+00	 4.624E+00	 5.739E+00	-8.001E-01	 1.074E-01	-4.203E-01	 4.974E-02	-2.400E-01	 3.894E-03	 1.246E+04	 1.079E+04	 1.274E+04	 3.761E+03	-2.791E+03	-3.878E+01	 1.247E+04	 1.079E+04	 1.274E+04	 3.738E+03	-2.811E+03	-6.236E+01	 4.349E+03	 1.021E+05	 8.989E+02	 7.723E+02	-1.638E+03	 6.878E+00	 6.488E+02	 9.936E+00	 6.712E+02	 1.060E-01	 8.645E+01	 8.082E+02	 1.206E+03	 6.878E+00	 1.157E+01
   2.447	 3.288E+01	 0.000E+00	 0.000E+00	 5.639E+00	 4.601E+00	 5.715E+00	-7.896E-01	 1.252E-01	-4.335E-01	 9.307E-02	-2.367E-01	 7.759E-04	 1.237E+04	 1.071E+04	 1.270E+04	 3.717E+03	-2.899E+03	 6.548E+01	 1.237E+04	 1.070E+04	 1.270E+04	 3.694E+03	-2.919E+03	 4.199E+01	 4.074E+03	 9.931E+04	 9.133E+02	 7.487E+02	-1.674E+03	 6.887E+00	 6.514E+02	 9.969E+00	 6.715E+02	 1.060E-01	 8.710E+01	 7.729E+02	 1.196E+03	 6.887E+00	 1.105E+01
   2.459	 3.288E+01	 0.000E+00	 0.000E+00	 5.605E+00	 4.581E+00	 5.697E+00	-7.811E-01	 1.373E-01	-4.421E-01	 1.289E-01	-2.259E-01	-1.442E-03	 1.229E+04	 1.065E+04	 1.266E+04	 3.681E+03	-2.970E+03	 1.392E+02	 1.230E+04	 1.064E+04	 1.266E+04	 3.658E+03	-2.990E+03	 1.158E+02	 3.782E+03	 9.710E+04	 9.224E+02	 7.255E+02	-1.704E+03	 6.895E+00	 6.539E+02	 1.000E+01	 6.717E+02	 1.060E-01	 8.761E+01	 7.492E+02	 1.188E+03	 6.895E+00	 1.070E+01
   2.472	 3.288E+01	 0.000E+00	 0.000E+00	 5.573E+00	 4.560E+00	 5.680E+00	-7.724E-01	 1.470E-01	-4.486E-01	 1.664E-01	-2.114E-01	-2.896E-03	 1.222E+04	 1.058E+04	 1.263E+04	 3.646E+03	-3.026E+03	 2.009E+02	 1.223E+04	 1.057E+04	 1.263E+04	 3.624E+03	-3.045E+03	 1.775E+02	 3.426E+03	 9.490E+04	 9.291E+02	 7.056E+02	-1.739E+03	 6.902E+00	 6.564E+02	 1.004E+01	 6.718E+02	 1.060E-01	 8.813E+01	 7.306E+02	 1.180E+03	 6.902E+00	 1.042E+01
   2.488	 3.288E+01	 0.000E+00	 0.000E+00	 5.534E+00	 4.534E+00	 5.660E+00	-7.617E-01	 1.561E-01	-4.540E-01	 2.161E-01	-1.856E-01	-3.289E-03	 1.214E+04	 1.050E+04	 1.260E+04	 3.604E+03	-3.072E+03	 2.638E+02	 1.215E+04	 1.050E+04	 1.260E+04	 3.581E+03	-3.092E+03	 2.405E+02	 2.925E+03	 9.217E+04	 9.338E+02	 6.769E+02	-1.783E+03	 6.912E+00	 6.613E+02	 1.011E+01	 6.719E+02	 1.060E-01	 8.878E+01	 7.151E+02	 1.171E+03	 6.912E+00	 1.019E+01
   2.506	 3.288E+01	 0.000E+00	 0.000E+00	 5.489E+00	 4.500E+00	 5.638E+00	-7.492E-01	 1.617E-01	-4.564E-01	 2.808E-01	-1.487E-01	-7.625E-04	 1.205E+04	 1.042E+04	 1.257E+04	 3.557E+03	-3.093E+03	 3.154E+02	 1.206E+04	 1.041E+04	 1.257E+04	 3.535E+03	-3.112E+03	 2.921E+02	 2.275E+03	 8.895E+04	 9.335E+02	 6.432E+02	-1.838E+03	 6.923E+00	 6.638E+02	 1.014E+01	 6.719E+02	 1.060E-01	 8.956E+01	 7.094E+02	 1.160E+03	 6.923E+00	 1.009E+01
   2.519	 3.288E+01	 0.000E+00	 0.000E+00	 5.460E+00	 4.477E+00	 5.626E+00	-7.413E-01	 1.619E-01	-4.555E-01	 3.275E-01	-1.239E-01	 3.336E-03	 1.200E+04	 1.037E+04	 1.256E+04	 3.531E+03	-3.084E+03	 3.337E+02	 1.200E+04	 1.036E+04	 1.256E+04	 3.509E+03	-3.104E+03	 3.104E+02	 1.848E+03	 8.686E+04	 9.286E+02	 6.233E+02	-1.876E+03	 6.931E+00	 6.662E+02	 1.018E+01	 6.719E+02	 1.060E-01	 9.008E+01	 7.145E+02	 1.153E+03	 6.931E+00	 1.015E+01
   2.531	 3.288E+01	 0.000E+00	 0.000E+00	 5.432E+00	 4.454E+00	 5.614E+00	-7.340E-01	 1.595E-01	-4.529E-01	 3.771E-01	-9.830E-02	 9.395E-03	 1.195E+04	 1.032E+04	 1.255E+04	 3.506E+03	-3.058E+03	 3.407E+02	 1.195E+04	 1.031E+04	 1.255E+04	 3.484E+03	-3.077E+03	 3.175E+02	 1.453E+03	 8.480E+04	 9.199E+02	 6.012E+02	-1.912E+03	 6.939E+00	 6.686E+02	 1.022E+01	 6.719E+02	 1.060E-01	 9.060E+01	 7.260E+02	 1.147E+03	 6.939E+00	 1.030E+01
   2.547	 3.288E+01	 0.000E+00	 0.000E+00	 5.398E+00	 4.424E+00	 5.603E+00	-7.259E-01	 1.521E-01	-4.471E-01	 4.431E-01	-7.195E-02	 2.018E-02	 1.189E+04	 1.026E+04	 1.254E+04	 3.483E+03	-2.999E+03	 3.303E+02	 1.190E+04	 1.026E+04	 1.254E+04	 3.461E+03	-3.018E+03	 3.071E+02	 1.044E+03	 8.231E+04	 9.026E+02	 5.784E+02	-1.956E+03	 6.949E+00	 6.711E+02	 1.026E+01	 6.720E+02	 1.060E-01	 9.125E+01	 7.505E+02	 1.139E+03	 6.949E+00	 1.063E+01
   2.559	 3.288E+01	 0.000E+00	 0.000E+00	 5.373E+00	 4.400E+00	 5.595E+00	-7.202E-01	 1.437E-01	-4.411E-01	 4.981E-01	-5.269E-02	 3.058E-02	 1.185E+04	 1.022E+04	 1.254E+04	 3.466E+03	-2.936E+03	 3.116E+02	 1.186E+04	 1.022E+04	 1.254E+04	 3.444E+03	-2.955E+03	 2.884E+02	 7.861E+02	 8.035E+04	 8.854E+02	 5.588E+02	-1.988E+03	 6.957E+00	 6.737E+02	 1.030E+01	 6.721E+02	 1.060E-01	 9.177E+01	 7.754E+02	 1.133E+03	 6.957E+00	 1.097E+01
   2.575	 3.288E+01	 0.000E+00	 0.000E+00	 5.342E+00	 4.370E+00	 5.586E+00	-7.143E-01	 1.298E-01	-4.321E-01	 5.691E-01	-3.441E-02	 4.571E-02	 1.181E+04	 1.017E+04	 1.253E+04	 3.450E+03	-2.839E+03	 2.736E+02	 1.181E+04	 1.017E+04	 1.253E+04	 3.428E+03	-2.857E+03	 2.504E+02	 5.693E+02	 7.797E+04	 8.600E+02	 5.375E+02	-2.027E+03	 6.967E+00	 6.790E+02	 1.037E+01	 6.723E+02	 1.060E-01	 9.242E+01	 8.129E+02	 1.125E+03	 6.967E+00	 1.149E+01
   2.588	 3.288E+01	 0.000E+00	 0.000E+00	 5.319E+00	 4.347E+00	 5.581E+00	-7.107E-01	 1.157E-01	-4.234E-01	 6.273E-01	-2.547E-02	 5.949E-02	 1.177E+04	 1.014E+04	 1.253E+04	 3.442E+03	-2.745E+03	 2.306E+02	 1.178E+04	 1.013E+04	 1.253E+04	 3.420E+03	-2.764E+03	 2.074E+02	 4.986E+02	 7.611E+04	 8.368E+02	 5.235E+02	-2.057E+03	 6.975E+00	 6.818E+02	 1.041E+01	 6.726E+02	 1.060E-01	 9.295E+01	 8.480E+02	 1.119E+03	 6.975E+00	 1.197E+01
   2.606	 3.288E+01	 0.000E+00	 0.000E+00	 5.287E+00	 4.313E+00	 5.576E+00	-7.070E-01	 9.056E-02	-4.087E-01	 7.154E-01	-1.779E-02	 8.178E-02	 1.172E+04	 1.008E+04	 1.252E+04	 3.435E+03	-2.584E+03	 1.492E+02	 1.173E+04	 1.008E+04	 1.252E+04	 3.413E+03	-2.603E+03	 1.260E+02	 5.476E+02	 7.339E+04	 7.995E+02	 5.034E+02	-2.098E+03	 6.987E+00	 6.847E+02	 1.045E+01	 6.733E+02	 1.060E-01	 9.373E+01	 9.061E+02	 1.109E+03	 6.987E+00	 1.277E+01
   2.619	 3.288E+01	 0.000E+00	 0.000E+00	 5.268E+00	 4.291E+00	 5.574E+00	-7.059E-01	 7.107E-02	-3.977E-01	 7.740E-01	-1.775E-02	 9.737E-02	 1.169E+04	 1.005E+04	 1.251E+04	 3.435E+03	-2.464E+03	 8.262E+01	 1.170E+04	 1.004E+04	 1.251E+04	 3.413E+03	-2.482E+03	 5.947E+01	 6.919E+02	 7.161E+04	 7.738E+02	 4.929E+02	-2.125E+03	 6.995E+00	 6.877E+02	 1.049E+01	 6.738E+02	 1.060E-01	 9.426E+01	 9.477E+02	 1.103E+03	 6.995E+00	 1.334E+01
   2.634	 3.288E+01	 0.000E+00	 0.000E+00	 5.245E+00	 4.266E+00	 5.574E+00	-7.061E-01	 4.395E-02	-3.828E-01	 8.452E-01	-2.051E-02	 1.167E-01	 1.166E+04	 1.000E+04	 1.250E+04	 3.438E+03	-2.300E+03	-1.359E+01	 1.166E+04	 9.996E+03	 1.250E+04	 3.417E+03	-2.318E+03	-3.672E+01	 9.873E+02	 6.943E+04	 7.414E+02	 4.796E+02	-2.155E+03	 7.006E+00	 6.908E+02	 1.053E+01	 6.748E+02	 1.060E-01	 9.491E+01	 1.001E+03	 1.095E+03	 7.006E+00	 1.407E+01
   2.647	 3.288E+01	 0.000E+00	 0.000E+00	 5.229E+00	 4.247E+00	 5.575E+00	-7.070E-01	 2.105E-02	-3.701E-01	 9.008E-01	-2.529E-02	 1.316E-01	 1.163E+04	 9.963E+03	 1.249E+04	 3.444E+03	-2.165E+03	-9.735E+01	 1.163E+04	 9.959E+03	 1.249E+04	 3.422E+03	-2.183E+03	-1.205E+02	 1.272E+03	 6.769E+04	 7.154E+02	 4.710E+02	-2.178E+03	 7.014E+00	 6.941E+02	 1.057E+01	 6.756E+02	 1.060E-01	 9.544E+01	 1.043E+03	 1.089E+03	 7.014E+00	 1.464E+01
   2.659	 3.288E+01	 0.000E+00	 0.000E+00	 5.214E+00	 4.229E+00	 5.576E+00	-7.086E-01	-2.860E-03	-3.567E-01	 9.538E-01	-3.000E-02	 1.455E-01	 1.159E+04	 9.924E+03	 1.248E+04	 3.450E+03	-2.024E+03	-1.874E+02	 1.160E+04	 9.920E+03	 1.248E+04	 3.429E+03	-2.042E+03	-2.105E+02	 1.593E+03	 6.597E+04	 6.890E+02	 4.609E+02	-2.201E+03	 7.023E+00	 6.975E+02	 1.061E+01	 6.766E+02	 1.060E-01	 9.596E+01	 1.085E+03	 1.082E+03	 7.023E+00	 1.521E+01
   2.675	 3.288E+01	 0.000E+00	 0.000E+00	 5.197E+00	 4.209E+00	 5.579E+00	-7.115E-01	-3.357E-02	-3.392E-01	 1.017E+00	-3.574E-02	 1.613E-01	 1.155E+04	 9.874E+03	 1.246E+04	 3.460E+03	-1.846E+03	-3.071E+02	 1.156E+04	 9.870E+03	 1.246E+04	 3.438E+03	-1.864E+03	-3.302E+02	 2.017E+03	 6.382E+04	 6.551E+02	 4.477E+02	-2.229E+03	 7.035E+00	 7.046E+02	 1.069E+01	 6.779E+02	 1.060E-01	 9.662E+01	 1.135E+03	 1.073E+03	 7.035E+00	 1.588E+01
   2.694	 3.288E+01	 0.000E+00	 0.000E+00	 5.179E+00	 4.189E+00	 5.583E+00	-7.158E-01	-7.096E-02	-3.169E-01	 1.088E+00	-4.430E-02	 1.775E-01	 1.150E+04	 9.813E+03	 1.244E+04	 3.476E+03	-1.633E+03	-4.597E+02	 1.151E+04	 9.810E+03	 1.244E+04	 3.455E+03	-1.652E+03	-4.827E+02	 2.521E+03	 6.124E+04	 6.122E+02	 4.334E+02	-2.263E+03	 7.049E+00	 7.084E+02	 1.073E+01	 6.798E+02	 1.060E-01	 9.741E+01	 1.190E+03	 1.063E+03	 7.049E+00	 1.661E+01
[...]
 123.400	 3.288E+01	 0.000E+00	 0.000E+00	 1.456E+00	-1.393E+00	 1.639E+00	-1.079E+00	 1.158E+00	-6.053E-01	 4.614E-02	-3.421E-02	-1.849E-03	 4.745E+03	-7.399E+02	 7.432E+03	 4.879E+03	-2.970E+03	 1.543E+03	 6.415E+03	-1.979E+03	 7.346E+03	 2.272E+03	-2.335E+03	-1.908E+03	 1.483E+04	 3.470E+04	 1.405E+03	 1.770E+03	-7.491E+03	 2.067E+01	 8.416E+03	 4.309E+01	 2.005E+03	 2.629E+01	 8.495E+01	 9.023E+03	 4.079E+02	 2.067E+01	 4.297E+01
 123.413	 3.288E+01	 0.000E+00	 0.000E+00	 1.414E+00	-1.401E+00	 1.682E+00	-1.055E+00	 1.174E+00	-6.415E-01	 4.967E-02	-3.919E-02	 1.303E-03	 4.623E+03	-7.227E+02	 7.526E+03	 4.819E+03	-3.051E+03	 1.682E+03	 6.279E+03	-1.999E+03	 7.493E+03	 2.273E+03	-2.415E+03	-1.826E+03	 1.470E+04	 3.473E+04	 1.431E+03	 1.585E+03	-7.568E+03	 2.067E+01	 8.416E+03	 4.309E+01	 2.005E+03	 2.629E+01	 8.650E+01	 9.020E+03	 4.074E+02	 2.067E+01	 4.296E+01
 123.425	 3.288E+01	 0.000E+00	 0.000E+00	 1.372E+00	-1.408E+00	 1.724E+00	-1.031E+00	 1.189E+00	-6.771E-01	 5.144E-02	-4.064E-02	 4.312E-03	 4.493E+03	-6.998E+02	 7.615E+03	 4.747E+03	-3.124E+03	 1.827E+03	 6.131E+03	-2.011E+03	 7.636E+03	 2.265E+03	-2.491E+03	-1.735E+03	 1.459E+04	 3.477E+04	 1.456E+03	 1.391E+03	-7.636E+03	 2.067E+01	 8.416E+03	 4.309E+01	 2.005E+03	 2.629E+01	 8.805E+01	 9.020E+03	 4.063E+02	 2.067E+01	 4.295E+01
 123.444	 3.288E+01	 0.000E+00	 0.000E+00	 1.307E+00	-1.415E+00	 1.784E+00	-9.928E-01	 1.209E+00	-7.292E-01	 5.690E-02	-5.325E-02	 9.054E-03	 4.308E+03	-6.550E+02	 7.746E+03	 4.648E+03	-3.234E+03	 2.035E+03	 5.921E+03	-2.019E+03	 7.846E+03	 2.259E+03	-2.609E+03	-1.607E+03	 1.444E+04	 3.484E+04	 1.490E+03	 1.106E+03	-7.724E+03	 2.067E+01	 8.416E+03	 4.309E+01	 2.005E+03	 2.629E+01	 9.038E+01	 9.022E+03	 4.059E+02	 2.067E+01	 4.296E+01
 123.456	 3.288E+01	 0.000E+00	 0.000E+00	 1.263E+00	-1.417E+00	 1.821E+00	-9.669E-01	 1.222E+00	-7.629E-01	 5.665E-02	-5.730E-02	 1.100E-02	 4.176E+03	-6.172E+02	 7.820E+03	 4.570E+03	-3.296E+03	 2.177E+03	 5.768E+03	-2.013E+03	 7.975E+03	 2.247E+03	-2.682E+03	-1.512E+03	 1.437E+04	 3.488E+04	 1.513E+03	 9.086E+02	-7.765E+03	 2.067E+01	 8.415E+03	 4.309E+01	 2.005E+03	 2.629E+01	 9.193E+01	 9.026E+03	 4.049E+02	 2.067E+01	 4.298E+01
 123.469	 3.288E+01	 0.000E+00	 0.000E+00	 1.219E+00	-1.419E+00	 1.856E+00	-9.403E-01	 1.233E+00	-7.958E-01	 5.968E-02	-6.775E-02	 1.336E-02	 4.052E+03	-5.731E+02	 7.898E+03	 4.498E+03	-3.360E+03	 2.315E+03	 5.626E+03	-2.002E+03	 8.106E+03	 2.238E+03	-2.758E+03	-1.423E+03	 1.431E+04	 3.491E+04	 1.534E+03	 7.153E+02	-7.801E+03	 2.067E+01	 8.415E+03	 4.309E+01	 2.005E+03	 2.629E+01	 9.348E+01	 9.031E+03	 4.050E+02	 2.067E+01	 4.300E+01
 123.481	 3.288E+01	 0.000E+00	 0.000E+00	 1.173E+00	-1.418E+00	 1.890E+00	-9.133E-01	 1.244E+00	-8.280E-01	 5.683E-02	-7.259E-02	 1.366E-02	 3.921E+03	-5.236E+02	 7.958E+03	 4.417E+03	-3.413E+03	 2.452E+03	 5.472E+03	-1.981E+03	 8.220E+03	 2.223E+03	-2.828E+03	-1.327E+03	 1.428E+04	 3.494E+04	 1.557E+03	 5.195E+02	-7.818E+03	 2.067E+01	 8.415E+03	 4.309E+01	 2.005E+03	 2.629E+01	 9.503E+01	 9.037E+03	 4.042E+02	 2.067E+01	 4.303E+01
 123.494	 3.288E+01	 0.000E+00	 0.000E+00	 1.128E+00	-1.416E+00	 1.921E+00	-8.857E-01	 1.253E+00	-8.592E-01	 5.888E-02	-8.348E-02	 1.492E-02	 3.799E+03	-4.684E+02	 8.027E+03	 4.340E+03	-3.469E+03	 2.588E+03	 5.328E+03	-1.957E+03	 8.343E+03	 2.209E+03	-2.903E+03	-1.235E+03	 1.426E+04	 3.497E+04	 1.580E+03	 3.261E+02	-7.836E+03	 2.067E+01	 8.415E+03	 4.309E+01	 2.005E+03	 2.629E+01	 9.658E+01	 9.044E+03	 4.047E+02	 2.067E+01	 4.307E+01
 123.509	 3.288E+01	 0.000E+00	 0.000E+00	 1.070E+00	-1.410E+00	 1.957E+00	-8.504E-01	 1.263E+00	-8.968E-01	 5.415E-02	-9.208E-02	 1.349E-02	 3.642E+03	-3.926E+02	 8.090E+03	 4.237E+03	-3.527E+03	 2.753E+03	 5.142E+03	-1.914E+03	 8.472E+03	 2.185E+03	-2.988E+03	-1.115E+03	 1.427E+04	 3.499E+04	 1.611E+03	 8.830E+01	-7.830E+03	 2.067E+01	 8.415E+03	 4.309E+01	 2.005E+03	 2.629E+01	 9.852E+01	 9.054E+03	 4.044E+02	 2.067E+01	 4.311E+01
 123.522	 3.288E+01	 0.000E+00	 0.000E+00	 1.023E+00	-1.404E+00	 1.985E+00	-8.218E-01	 1.269E+00	-9.259E-01	 5.495E-02	-1.025E-01	 1.348E-02	 3.523E+03	-3.279E+02	 8.149E+03	 4.156E+03	-3.576E+03	 2.887E+03	 5.000E+03	-1.878E+03	 8.585E+03	 2.166E+03	-3.061E+03	-1.021E+03	 1.429E+04	 3.500E+04	 1.637E+03	-1.019E+02	-7.830E+03	 2.067E+01	 8.415E+03	 4.309E+01	 2.005E+03	 2.629E+01	 1.001E+02	 9.062E+03	 4.052E+02	 2.067E+01	 4.315E+01
 123.534	 3.288E+01	 0.000E+00	 0.000E+00	 9.765E-01	-1.396E+00	 2.010E+00	-7.926E-01	 1.275E+00	-9.540E-01	 4.908E-02	-1.055E-01	 1.131E-02	 3.395E+03	-2.604E+02	 8.188E+03	 4.065E+03	-3.614E+03	 3.020E+03	 4.844E+03	-1.834E+03	 8.679E+03	 2.141E+03	-3.125E+03	-9.196E+02	 1.431E+04	 3.501E+04	 1.664E+03	-2.941E+02	-7.811E+03	 2.067E+01	 8.415E+03	 4.309E+01	 2.005E+03	 2.629E+01	 1.016E+02	 9.070E+03	 4.047E+02	 2.067E+01	 4.319E+01
 123.547	 3.288E+01	 0.000E+00	 0.000E+00	 9.293E-01	-1.386E+00	 2.033E+00	-7.629E-01	 1.279E+00	-9.811E-01	 4.856E-02	-1.157E-01	 1.030E-02	 3.279E+03	-1.890E+02	 8.239E+03	 3.981E+03	-3.656E+03	 3.150E+03	 4.703E+03	-1.789E+03	 8.782E+03	 2.117E+03	-3.194E+03	-8.249E+02	 1.435E+04	 3.501E+04	 1.691E+03	-4.803E+02	-7.797E+03	 2.068E+01	 8.415E+03	 4.309E+01	 2.005E+03	 2.629E+01	 1.032E+02	 9.078E+03	 4.057E+02	 2.068E+01	 4.323E+01
 123.559	 3.288E+01	 0.000E+00	 0.000E+00	 8.819E-01	-1.375E+00	 2.055E+00	-7.327E-01	 1.282E+00	-1.007E+00	 4.226E-02	-1.191E-01	 7.797E-03	 3.152E+03	-1.173E+02	 8.273E+03	 3.885E+03	-3.688E+03	 3.281E+03	 4.547E+03	-1.739E+03	 8.871E+03	 2.087E+03	-3.254E+03	-7.227E+02	 1.438E+04	 3.501E+04	 1.717E+03	-6.713E+02	-7.770E+03	 2.068E+01	 8.415E+03	 4.309E+01	 2.005E+03	 2.629E+01	 1.047E+02	 9.086E+03	 4.052E+02	 2.068E+01	 4.326E+01
 123.575	 3.288E+01	 0.000E+00	 0.000E+00	 8.223E-01	-1.357E+00	 2.080E+00	-6.943E-01	 1.284E+00	-1.039E+00	 3.737E-02	-1.269E-01	 5.360E-03	 3.001E+03	-2.327E+01	 8.318E+03	 3.765E+03	-3.727E+03	 3.443E+03	 4.358E+03	-1.672E+03	 8.983E+03	 2.046E+03	-3.331E+03	-5.974E+02	 1.442E+04	 3.501E+04	 1.748E+03	-9.067E+02	-7.735E+03	 2.068E+01	 8.415E+03	 4.309E+01	 2.005E+03	 2.629E+01	 1.067E+02	 9.094E+03	 4.053E+02	 2.068E+01	 4.330E+01
 123.588	 3.288E+01	 0.000E+00	 0.000E+00	 7.744E-01	-1.342E+00	 2.098E+00	-6.630E-01	 1.284E+00	-1.063E+00	 3.317E-02	-1.365E-01	 2.608E-03	 2.890E+03	 5.596E+01	 8.348E+03	 3.678E+03	-3.758E+03	 3.563E+03	 4.220E+03	-1.614E+03	 9.063E+03	 2.017E+03	-3.394E+03	-5.030E+02	 1.444E+04	 3.501E+04	 1.771E+03	-1.081E+03	-7.694E+03	 2.068E+01	 8.416E+03	 4.309E+01	 2.005E+03	 2.629E+01	 1.082E+02	 9.098E+03	 4.061E+02	 2.068E+01	 4.332E+01
 123.600	 3.288E+01	 0.000E+00	 0.000E+00	 7.264E-01	-1.324E+00	 2.116E+00	-6.312E-01	 1.283E+00	-1.086E+00	 2.689E-02	-1.403E-01	-2.184E-04	 2.772E+03	 1.357E+02	 8.369E+03	 3.577E+03	-3.778E+03	 3.684E+03	 4.070E+03	-1.552E+03	 9.135E+03	 1.979E+03	-3.447E+03	-4.038E+02	 1.445E+04	 3.501E+04	 1.794E+03	-1.260E+03	-7.647E+03	 2.067E+01	 8.416E+03	 4.309E+01	 2.005E+03	 2.629E+01	 1.098E+02	 9.101E+03	 4.060E+02	 2.067E+01	 4.334E+01
 123.613	 3.288E+01	 0.000E+00	 0.000E+00	 6.783E-01	-1.304E+00	 2.133E+00	-5.989E-01	 1.280E+00	-1.109E+00	 1.961E-02	-1.456E-01	-4.003E-03	 2.665E+03	 2.190E+02	 8.381E+03	 3.489E+03	-3.801E+03	 3.795E+03	 3.935E+03	-1.487E+03	 9.195E+03	 1.948E+03	-3.505E+03	-3.103E+02	 1.446E+04	 3.501E+04	 1.818E+03	-1.424E+03	-7.586E+03	 2.067E+01	 8.416E+03	 4.309E+01	 2.005E+03	 2.629E+01	 1.113E+02	 9.101E+03	 4.065E+02	 2.067E+01	 4.334E+01
 123.631	 3.288E+01	 0.000E+00	 0.000E+00	 6.062E-01	-1.272E+00	 2.157E+00	-5.500E-01	 1.274E+00	-1.142E+00	 6.462E-03	-1.426E-01	-9.648E-03	 2.503E+03	 3.463E+02	 8.385E+03	 3.345E+03	-3.821E+03	 3.954E+03	 3.725E+03	-1.382E+03	 9.269E+03	 1.891E+03	-3.579E+03	-1.693E+02	 1.444E+04	 3.502E+04	 1.856E+03	-1.667E+03	-7.480E+03	 2.067E+01	 8.416E+03	 4.309E+01	 2.005E+03	 2.629E+01	 1.136E+02	 9.095E+03	 4.064E+02	 2.067E+01	 4.331E+01
 123.644	 3.288E+01	 0.000E+00	 0.000E+00	 5.584E-01	-1.248E+00	 2.172E+00	-5.170E-01	 1.268E+00	-1.164E+00	-3.497E-03	-1.372E-01	-1.378E-02	 2.399E+03	 4.358E+02	 8.377E+03	 3.253E+03	-3.832E+03	 4.052E+03	 3.591E+03	-1.307E+03	 9.305E+03	 1.853E+03	-3.629E+03	-7.769E+01	 1.441E+04	 3.504E+04	 1.882E+03	-1.819E+03	-7.393E+03	 2.067E+01	 8.417E+03	 4.309E+01	 2.006E+03	 2.629E+01	 1.152E+02	 9.086E+03	 4.064E+02	 2.067E+01	 4.327E+01
 123.656	 3.288E+01	 0.000E+00	 0.000E+00	 5.108E-01	-1.222E+00	 2.187E+00	-4.840E-01	 1.261E+00	-1.185E+00	-1.408E-02	-1.230E-01	-1.740E-02	 2.295E+03	 5.270E+02	 8.360E+03	 3.153E+03	-3.831E+03	 4.144E+03	 3.455E+03	-1.224E+03	 9.331E+03	 1.810E+03	-3.668E+03	 1.199E+01	 1.436E+04	 3.508E+04	 1.908E+03	-1.970E+03	-7.298E+03	 2.067E+01	 8.417E+03	 4.309E+01	 2.006E+03	 2.629E+01	 1.167E+02	 9.073E+03	 4.059E+02	 2.067E+01	 4.321E+01
 123.669	 3.288E+01	 0.000E+00	 0.000E+00	 4.637E-01	-1.195E+00	 2.201E+00	-4.510E-01	 1.252E+00	-1.205E+00	-2.375E-02	-1.103E-01	-2.037E-02	 2.193E+03	 6.223E+02	 8.341E+03	 3.055E+03	-3.832E+03	 4.234E+03	 3.319E+03	-1.139E+03	 9.354E+03	 1.768E+03	-3.711E+03	 1.009E+02	 1.431E+04	 3.512E+04	 1.930E+03	-2.118E+03	-7.195E+03	 2.067E+01	 8.417E+03	 4.309E+01	 2.006E+03	 2.629E+01	 1.183E+02	 9.055E+03	 4.056E+02	 2.067E+01	 4.313E+01
 123.681	 3.288E+01	 0.000E+00	 0.000E+00	 4.173E-01	-1.166E+00	 2.214E+00	-4.182E-01	 1.242E+00	-1.225E+00	-3.200E-02	-9.386E-02	-2.218E-02	 2.095E+03	 7.198E+02	 8.317E+03	 2.953E+03	-3.821E+03	 4.316E+03	 3.187E+03	-1.047E+03	 9.368E+03	 1.720E+03	-3.745E+03	 1.849E+02	 1.425E+04	 3.519E+04	 1.947E+03	-2.263E+03	-7.087E+03	 2.067E+01	 8.417E+03	 4.309E+01	 2.006E+03	 2.629E+01	 1.198E+02	 9.032E+03	 4.052E+02	 2.067E+01	 4.302E+01
 123.697	 3.288E+01	 0.000E+00	 0.000E+00	 3.605E-01	-1.128E+00	 2.230E+00	-3.776E-01	 1.226E+00	-1.249E+00	-4.055E-02	-7.677E-02	-2.256E-02	 1.965E+03	 8.482E+02	 8.288E+03	 2.822E+03	-3.808E+03	 4.419E+03	 3.012E+03	-9.266E+02	 9.388E+03	 1.660E+03	-3.790E+03	 2.909E+02	 1.418E+04	 3.530E+04	 1.953E+03	-2.455E+03	-6.945E+03	 2.067E+01	 8.417E+03	 4.309E+01	 2.006E+03	 2.629E+01	 1.218E+02	 8.998E+03	 4.045E+02	 2.067E+01	 4.287E+01
 123.709	 3.288E+01	 0.000E+00	 0.000E+00	 3.160E-01	-1.096E+00	 2.242E+00	-3.456E-01	 1.213E+00	-1.267E+00	-4.372E-02	-6.242E-02	-2.083E-02	 1.864E+03	 9.536E+02	 8.265E+03	 2.712E+03	-3.787E+03	 4.497E+03	 2.873E+03	-8.228E+02	 9.402E+03	 1.606E+03	-3.818E+03	 3.705E+02	 1.412E+04	 3.541E+04	 1.948E+03	-2.611E+03	-6.831E+03	 2.066E+01	 8.417E+03	 4.309E+01	 2.005E+03	 2.629E+01	 1.233E+02	 8.969E+03	 4.040E+02	 2.066E+01	 4.273E+01
 123.722	 3.288E+01	 0.000E+00	 0.000E+00	 2.725E-01	-1.063E+00	 2.253E+00	-3.139E-01	 1.198E+00	-1.285E+00	-4.655E-02	-5.499E-02	-1.823E-02	 1.758E+03	 1.062E+03	 8.243E+03	 2.602E+03	-3.768E+03	 4.577E+03	 2.728E+03	-7.174E+02	 9.418E+03	 1.554E+03	-3.849E+03	 4.518E+02	 1.406E+04	 3.554E+04	 1.931E+03	-2.772E+03	-6.714E+03	 2.066E+01	 8.417E+03	 4.309E+01	 2.005E+03	 2.629E+01	 1.249E+02	 8.939E+03	 4.032E+02	 2.066E+01	 4.259E+01
 123.734	 3.288E+01	 0.000E+00	 0.000E+00	 2.300E-01	-1.028E+00	 2.263E+00	-2.826E-01	 1.181E+00	-1.301E+00	-4.504E-02	-4.888E-02	-1.328E-02	 1.650E+03	 1.173E+03	 8.226E+03	 2.484E+03	-3.738E+03	 4.654E+03	 2.580E+03	-6.044E+02	 9.437E+03	 1.496E+03	-3.871E+03	 5.287E+02	 1.402E+04	 3.568E+04	 1.904E+03	-2.943E+03	-6.601E+03	 2.066E+01	 8.416E+03	 4.309E+01	 2.005E+03	 2.629E+01	 1.264E+02	 8.911E+03	 4.025E+02	 2.066E+01	 4.246E+01
 123.747	 3.288E+01	 0.000E+00	 0.000E+00	 1.883E-01	-9.912E-01	 2.272E+00	-2.515E-01	 1.163E+00	-1.317E+00	-4.400E-02	-5.007E-02	-8.359E-03	 1.544E+03	 1.286E+03	 8.208E+03	 2.370E+03	-3.711E+03	 4.732E+03	 2.434E+03	-4.908E+02	 9.455E+03	 1.441E+03	-3.897E+03	 6.065E+02	 1.399E+04	 3.583E+04	 1.869E+03	-3.110E+03	-6.483E+03	 2.066E+01	 8.416E+03	 4.309E+01	 2.005E+03	 2.629E+01	 1.280E+02	 8.885E+03	 4.018E+02	 2.066E+01	 4.234E+01
 123.763	 3.288E+01	 0.000E+00	 0.000E+00	 1.370E-01	-9.437E-01	 2.282E+00	-2.129E-01	 1.138E+00	-1.336E+00	-3.978E-02	-5.084E-02	-6.771E-04	 1.413E+03	 1.430E+03	 8.187E+03	 2.218E+03	-3.662E+03	 4.825E+03	 2.249E+03	-3.399E+02	 9.477E+03	 1.363E+03	-3.916E+03	 6.995E+02	 1.398E+04	 3.602E+04	 1.822E+03	-3.323E+03	-6.336E+03	 2.066E+01	 8.415E+03	 4.309E+01	 2.005E+03	 2.629E+01	 1.299E+02	 8.858E+03	 4.007E+02	 2.066E+01	 4.221E+01
 123.775	 3.288E+01	 0.000E+00	 0.000E+00	 9.657E-02	-9.040E-01	 2.289E+00	-1.820E-01	 1.117E+00	-1.350E+00	-3.435E-02	-5.410E-02	 6.033E-03	 1.314E+03	 1.548E+03	 8.171E+03	 2.091E+03	-3.613E+03	 4.898E+03	 2.104E+03	-2.126E+02	 9.495E+03	 1.293E+03	-3.925E+03	 7.717E+02	 1.399E+04	 3.618E+04	 1.784E+03	-3.492E+03	-6.218E+03	 2.066E+01	 8.414E+03	 4.309E+01	 2.005E+03	 2.629E+01	 1.315E+02	 8.842E+03	 4.001E+02	 2.066E+01	 4.213E+01
 123.788	 3.288E+01	 0.000E+00	 0.000E+00	 5.641E-02	-8.627E-01	 2.294E+00	-1.510E-01	 1.095E+00	-1.363E+00	-2.977E-02	-6.040E-02	 1.161E-02	 1.220E+03	 1.667E+03	 8.157E+03	 1.976E+03	-3.574E+03	 4.972E+03	 1.969E+03	-8.854E+01	 9.516E+03	 1.231E+03	-3.943E+03	 8.445E+02	 1.403E+04	 3.631E+04	 1.752E+03	-3.651E+03	-6.099E+03	 2.066E+01	 8.413E+03	 4.309E+01	 2.004E+03	 2.629E+01	 1.330E+02	 8.833E+03	 4.000E+02	 2.066E+01	 4.209E+01
 123.800	 3.288E+01	 0.000E+00	 0.000E+00	 1.638E-02	-8.199E-01	 2.299E+00	-1.200E-01	 1.071E+00	-1.376E+00	-2.332E-02	-5.978E-02	 1.734E-02	 1.133E+03	 1.789E+03	 8.142E+03	 1.853E+03	-3.518E+03	 5.040E+03	 1.836E+03	 4.501E+01	 9.532E+03	 1.159E+03	-3.947E+03	 9.123E+02	 1.408E+04	 3.643E+04	 1.730E+03	-3.808E+03	-5.978E+03	 2.066E+01	 8.412E+03	 4.309E+01	 2.004E+03	 2.629E+01	 1.346E+02	 8.831E+03	 4.002E+02	 2.066E+01	 4.208E+01
 123.819	 3.288E+01	 0.000E+00	 0.000E+00	-4.366E-02	-7.532E-01	 2.304E+00	-7.290E-02	 1.034E+00	-1.392E+00	-1.750E-02	-6.096E-02	 2.257E-02	 1.014E+03	 1.969E+03	 8.118E+03	 1.684E+03	-3.447E+03	 5.144E+03	 1.655E+03	 2.381E+02	 9.557E+03	 1.061E+03	-3.962E+03	 1.016E+03	 1.419E+04	 3.656E+04	 1.717E+03	-4.021E+03	-5.797E+03	 2.066E+01	 8.411E+03	 4.309E+01	 2.004E+03	 2.629E+01	 1.369E+02	 8.842E+03	 4.010E+02	 2.066E+01	 4.213E+01
 123.831	 3.288E+01	 0.000E+00	 0.000E+00	-8.368E-02	-7.068E-01	 2.307E+00	-4.117E-02	 1.007E+00	-1.402E+00	-1.224E-02	-5.074E-02	 2.518E-02	 9.457E+02	 2.092E+03	 8.099E+03	 1.566E+03	-3.380E+03	 5.203E+03	 1.542E+03	 3.780E+02	 9.566E+03	 9.853E+02	-3.957E+03	 1.078E+03	 1.429E+04	 3.662E+04	 1.723E+03	-4.156E+03	-5.672E+03	 2.066E+01	 8.410E+03	 4.309E+01	 2.004E+03	 2.629E+01	 1.384E+02	 8.859E+03	 4.021E+02	 2.066E+01	 4.221E+01
 123.844	 3.288E+01	 0.000E+00	 0.000E+00	-1.239E-01	-6.590E-01	 2.308E+00	-9.063E-03	 9.798E-01	-1.411E+00	-1.165E-02	-4.530E-02	 2.487E-02	 8.826E+02	 2.210E+03	 8.077E+03	 1.459E+03	-3.324E+03	 5.264E+03	 1.438E+03	 5.094E+02	 9.573E+03	 9.172E+02	-3.959E+03	 1.142E+03	 1.439E+04	 3.664E+04	 1.735E+03	-4.276E+03	-5.548E+03	 2.066E+01	 8.409E+03	 4.309E+01	 2.003E+03	 2.629E+01	 1.400E+02	 8.884E+03	 4.032E+02	 2.066E+01	 4.232E+01
 123.856	 3.288E+01	 0.000E+00	 0.000E+00	-1.639E-01	-6.099E-01	 2.308E+00	 2.332E-02	 9.514E-01	-1.419E+00	-9.793E-03	-3.269E-02	 2.401E-02	 8.262E+02	 2.331E+03	 8.051E+03	 1.347E+03	-3.250E+03	 5.315E+03	 1.337E+03	 6.502E+02	 9.573E+03	 8.420E+02	-3.947E+03	 1.199E+03	 1.450E+04	 3.663E+04	 1.751E+03	-4.394E+03	-5.419E+03	 2.066E+01	 8.409E+03	 4.309E+01	 2.003E+03	 2.629E+01	 1.415E+02	 8.914E+03	 4.047E+02	 2.066E+01	 4.247E+01
 123.869	 3.288E+01	 0.000E+00	 0.000E+00	-2.041E-01	-5.596E-01	 2.308E+00	 5.604E-02	 9.220E-01	-1.426E+00	-1.296E-02	-2.732E-02	 2.026E-02	 7.724E+02	 2.447E+03	 8.022E+03	 1.245E+03	-3.188E+03	 5.368E+03	 1.244E+03	 7.819E+02	 9.570E+03	 7.744E+02	-3.942E+03	 1.260E+03	 1.461E+04	 3.659E+04	 1.765E+03	-4.499E+03	-5.290E+03	 2.067E+01	 8.408E+03	 4.309E+01	 2.003E+03	 2.629E+01	 1.431E+02	 8.948E+03	 4.061E+02	 2.067E+01	 4.263E+01
 123.884	 3.288E+01	 0.000E+00	 0.000E+00	-2.540E-01	-4.950E-01	 2.306E+00	 9.724E-02	 8.838E-01	-1.434E+00	-1.683E-02	-1.700E-02	 1.441E-02	 7.103E+02	 2.595E+03	 7.979E+03	 1.114E+03	-3.093E+03	 5.420E+03	 1.130E+03	 9.567E+02	 9.554E+03	 6.842E+02	-3.922E+03	 1.326E+03	 1.473E+04	 3.651E+04	 1.775E+03	-4.629E+03	-5.121E+03	 2.067E+01	 8.407E+03	 4.309E+01	 2.003E+03	 2.629E+01	 1.450E+02	 8.994E+03	 4.079E+02	 2.067E+01	 4.285E+01
 123.897	 3.288E+01	 0.000E+00	 0.000E+00	-2.937E-01	-4.425E-01	 2.303E+00	 1.303E-01	 8.524E-01	-1.439E+00	-2.316E-02	-1.643E-02	 8.035E-03	 6.607E+02	 2.709E+03	 7.942E+03	 1.015E+03	-3.025E+03	 5.464E+03	 1.042E+03	 1.089E+03	 9.541E+03	 6.177E+02	-3.912E+03	 1.382E+03	 1.481E+04	 3.642E+04	 1.775E+03	-4.725E+03	-4.987E+03	 2.066E+01	 8.407E+03	 4.309E+01	 2.003E+03	 2.629E+01	 1.466E+02	 9.029E+03	 4.092E+02	 2.066E+01	 4.302E+01
 123.909	 3.288E+01	 0.000E+00	 0.000E+00	-3.331E-01	-3.892E-01	 2.300E+00	 1.633E-01	 8.201E-01	-1.443E+00	-2.736E-02	-1.191E-02	 2.274E-03	 6.116E+02	 2.827E+03	 7.902E+03	 9.099E+02	-2.942E+03	 5.498E+03	 9.513E+02	 1.232E+03	 9.519E+03	 5.449E+02	-3.890E+03	 1.430E+03	 1.488E+04	 3.633E+04	 1.768E+03	-4.827E+03	-4.846E+03	 2.066E+01	 8.407E+03	 4.309E+01	 2.003E+03	 2.629E+01	 1.481E+02	 9.062E+03	 4.106E+02	 2.066E+01	 4.317E+01
 123.922	 3.288E+01	 0.000E+00	 0.000E+00	-3.723E-01	-3.352E-01	 2.295E+00	 1.962E-01	 7.869E-01	-1.447E+00	-3.455E-02	-1.367E-02	-4.773E-03	 5.609E+02	 2.943E+03	 7.859E+03	 8.101E+02	-2.869E+03	 5.535E+03	 8.616E+02	 1.368E+03	 9.498E+03	 4.780E+02	-3.876E+03	 1.482E+03	 1.493E+04	 3.622E+04	 1.754E+03	-4.924E+03	-4.705E+03	 2.066E+01	 8.406E+03	 4.309E+01	 2.003E+03	 2.628E+01	 1.497E+02	 9.090E+03	 4.117E+02	 2.066E+01	 4.331E+01
 123.934	 3.288E+01	 0.000E+00	 0.000E+00	-4.110E-01	-2.805E-01	 2.290E+00	 2.288E-01	 7.529E-01	-1.450E+00	-3.792E-02	-8.918E-03	-1.013E-02	 5.087E+02	 3.065E+03	 7.815E+03	 7.005E+02	-2.779E+03	 5.561E+03	 7.663E+02	 1.517E+03	 9.470E+03	 4.028E+02	-3.848E+03	 1.526E+03	 1.495E+04	 3.613E+04	 1.736E+03	-5.029E+03	-4.556E+03	 2.066E+01	 8.406E+03	 4.309E+01	 2.003E+03	 2.628E+01	 1.512E+02	 9.111E+03	 4.129E+02	 2.066E+01	 4.342E+01
 123.950	 3.288E+01	 0.000E+00	 0.000E+00	-4.590E-01	-2.115E-01	 2.281E+00	 2.692E-01	 7.095E-01	-1.452E+00	-3.977E-02	-7.667E-04	-1.549E-02	 4.407E+02	 3.223E+03	 7.758E+03	 5.597E+02	-2.661E+03	 5.591E+03	 6.430E+02	 1.711E+03	 9.431E+03	 3.066E+02	-3.813E+03	 1.578E+03	 1.496E+04	 3.601E+04	 1.709E+03	-5.167E+03	-4.363E+03	 2.066E+01	 8.407E+03	 4.309E+01	 2.003E+03	 2.628E+01	 1.532E+02	 9.129E+03	 4.145E+02	 2.066E+01	 4.350E+01
 123.963	 3.288E+01	 0.000E+00	 0.000E+00	-4.969E-01	-1.558E-01	 2.274E+00	 3.011E-01	 6.738E-01	-1.453E+00	-4.379E-02	 2.355E-03	-1.999E-02	 3.817E+02	 3.345E+03	 7.709E+03	 4.507E+02	-2.577E+03	 5.619E+03	 5.418E+02	 1.858E+03	 9.400E+03	 2.351E+02	-3.792E+03	 1.624E+03	 1.494E+04	 3.593E+04	 1.686E+03	-5.274E+03	-4.210E+03	 2.066E+01	 8.407E+03	 4.309E+01	 2.003E+03	 2.628E+01	 1.547E+02	 9.135E+03	 4.151E+02	 2.066E+01	 4.354E+01
 123.975	 3.288E+01	 0.000E+00	 0.000E+00	-5.344E-01	-9.959E-02	 2.265E+00	 3.326E-01	 6.374E-01	-1.454E+00	-4.135E-02	 1.351E-02	-2.125E-02	 3.202E+02	 3.478E+03	 7.660E+03	 3.295E+02	-2.471E+03	 5.635E+03	 4.330E+02	 2.025E+03	 9.363E+03	 1.537E+02	-3.755E+03	 1.661E+03	 1.490E+04	 3.587E+04	 1.662E+03	-5.396E+03	-4.046E+03	 2.065E+01	 8.408E+03	 4.309E+01	 2.003E+03	 2.628E+01	 1.563E+02	 9.134E+03	 4.159E+02	 2.065E+01	 4.354E+01
 123.988	 3.288E+01	 0.000E+00	 0.000E+00	-5.714E-01	-4.308E-02	 2.255E+00	 3.636E-01	 6.005E-01	-1.453E+00	-4.178E-02	 2.029E-02	-2.275E-02	 2.541E+02	 3.607E+03	 7.608E+03	 2.137E+02	-2.378E+03	 5.656E+03	 3.224E+02	 2.181E+03	 9.326E+03	 7.912E+01	-3.729E+03	 1.703E+03	 1.485E+04	 3.583E+04	 1.637E+03	-5.514E+03	-3.885E+03	 2.065E+01	 8.408E+03	 4.309E+01	 2.004E+03	 2.628E+01	 1.578E+02	 9.128E+03	 4.161E+02	 2.065E+01	 4.351E+01
